<?xml version="1.0" encoding="UTF-8"?>

<!-- generated on 2023-05-14 17:45:48 by Eclipse SUMO netedit Version 1.12.0
<configuration xmlns:xsi="http://www.w3.org/2001/XMLSchema-instance" xsi:noNamespaceSchemaLocation="http://sumo.dlr.de/xsd/netconvertConfiguration.xsd">

    <input>
        <sumo-net-file value="map.net.xml"/>
    </input>

    <output>
        <output-file value="map.net.xml"/>
    </output>

    <processing>
        <geometry.min-radius.fix.railways value="false"/>
        <geometry.max-grade.fix value="false"/>
        <offset.disable-normalization value="true"/>
        <lefthand value="false"/>
    </processing>

    <junctions>
        <no-turnarounds value="true"/>
        <junctions.corner-detail value="5"/>
        <junctions.limit-turn-speed value="5.5"/>
        <rectangular-lane-cut value="false"/>
    </junctions>

    <pedestrian>
        <walkingareas value="false"/>
    </pedestrian>

    <report>
        <aggregate-warnings value="5"/>
    </report>

</configuration>
-->

<net version="1.9" junctionCornerDetail="5" limitTurnSpeed="5.50" xmlns:xsi="http://www.w3.org/2001/XMLSchema-instance" xsi:noNamespaceSchemaLocation="http://sumo.dlr.de/xsd/net_file.xsd">

    <location netOffset="0.00,0.00" convBoundary="0.00,0.00,1200.00,1200.00" origBoundary="0.00,0.00,1200.00,1200.00" projParameter="!"/>

    <edge id=":A_0" function="internal">
        <lane id=":A_0_0" index="0" speed="6.51" length="9.03" shape="198.40,1007.20 198.05,1004.75 197.00,1003.00 195.25,1001.95 192.80,1001.60"/>
    </edge>
    <edge id=":A_1" function="internal">
        <lane id=":A_1_0" index="0" speed="13.89" length="14.40" shape="198.40,1007.20 198.40,992.80"/>
    </edge>
    <edge id=":A_2" function="internal">
        <lane id=":A_2_0" index="0" speed="8.00" length="4.07" shape="198.40,1007.20 198.95,1003.35 199.04,1003.20"/>
    </edge>
    <edge id=":A_12" function="internal">
        <lane id=":A_12_0" index="0" speed="8.00" length="10.13" shape="199.04,1003.20 200.60,1000.60 203.35,998.95 207.20,998.40"/>
    </edge>
    <edge id=":A_3" function="internal">
        <lane id=":A_3_0" index="0" speed="6.51" length="9.03" shape="207.20,1001.60 204.75,1001.95 203.00,1003.00 201.95,1004.75 201.60,1007.20"/>
    </edge>
    <edge id=":A_4" function="internal">
        <lane id=":A_4_0" index="0" speed="13.89" length="14.40" shape="207.20,1001.60 192.80,1001.60"/>
    </edge>
    <edge id=":A_5" function="internal">
        <lane id=":A_5_0" index="0" speed="8.00" length="14.19" shape="207.20,1001.60 203.35,1001.05 200.60,999.40 198.95,996.65 198.40,992.80"/>
    </edge>
    <edge id=":A_6" function="internal">
        <lane id=":A_6_0" index="0" speed="6.51" length="9.03" shape="201.60,992.80 201.95,995.25 203.00,997.00 204.75,998.05 207.20,998.40"/>
    </edge>
    <edge id=":A_7" function="internal">
        <lane id=":A_7_0" index="0" speed="13.89" length="14.40" shape="201.60,992.80 201.60,1007.20"/>
    </edge>
    <edge id=":A_8" function="internal">
        <lane id=":A_8_0" index="0" speed="8.00" length="4.07" shape="201.60,992.80 201.05,996.65 200.96,996.80"/>
    </edge>
    <edge id=":A_13" function="internal">
        <lane id=":A_13_0" index="0" speed="8.00" length="10.13" shape="200.96,996.80 199.40,999.40 196.65,1001.05 192.80,1001.60"/>
    </edge>
    <edge id=":A_9" function="internal">
        <lane id=":A_9_0" index="0" speed="6.51" length="9.03" shape="192.80,998.40 195.25,998.05 197.00,997.00 198.05,995.25 198.40,992.80"/>
    </edge>
    <edge id=":A_10" function="internal">
        <lane id=":A_10_0" index="0" speed="13.89" length="14.40" shape="192.80,998.40 207.20,998.40"/>
    </edge>
    <edge id=":A_11" function="internal">
        <lane id=":A_11_0" index="0" speed="8.00" length="14.19" shape="192.80,998.40 196.65,998.95 199.40,1000.60 201.05,1003.35 201.60,1007.20"/>
    </edge>
    <edge id=":B_0" function="internal">
        <lane id=":B_0_0" index="0" speed="6.51" length="9.03" shape="398.40,1007.20 398.05,1004.75 397.00,1003.00 395.25,1001.95 392.80,1001.60"/>
    </edge>
    <edge id=":B_1" function="internal">
        <lane id=":B_1_0" index="0" speed="13.89" length="14.40" shape="398.40,1007.20 398.40,992.80"/>
    </edge>
    <edge id=":B_2" function="internal">
        <lane id=":B_2_0" index="0" speed="8.00" length="4.07" shape="398.40,1007.20 398.95,1003.35 399.04,1003.20"/>
    </edge>
    <edge id=":B_12" function="internal">
        <lane id=":B_12_0" index="0" speed="8.00" length="10.13" shape="399.04,1003.20 400.60,1000.60 403.35,998.95 407.20,998.40"/>
    </edge>
    <edge id=":B_3" function="internal">
        <lane id=":B_3_0" index="0" speed="6.51" length="9.03" shape="407.20,1001.60 404.75,1001.95 403.00,1003.00 401.95,1004.75 401.60,1007.20"/>
    </edge>
    <edge id=":B_4" function="internal">
        <lane id=":B_4_0" index="0" speed="13.89" length="14.40" shape="407.20,1001.60 392.80,1001.60"/>
    </edge>
    <edge id=":B_5" function="internal">
        <lane id=":B_5_0" index="0" speed="8.00" length="14.19" shape="407.20,1001.60 403.35,1001.05 400.60,999.40 398.95,996.65 398.40,992.80"/>
    </edge>
    <edge id=":B_6" function="internal">
        <lane id=":B_6_0" index="0" speed="6.51" length="9.03" shape="401.60,992.80 401.95,995.25 403.00,997.00 404.75,998.05 407.20,998.40"/>
    </edge>
    <edge id=":B_7" function="internal">
        <lane id=":B_7_0" index="0" speed="13.89" length="14.40" shape="401.60,992.80 401.60,1007.20"/>
    </edge>
    <edge id=":B_8" function="internal">
        <lane id=":B_8_0" index="0" speed="8.00" length="4.07" shape="401.60,992.80 401.05,996.65 400.96,996.80"/>
    </edge>
    <edge id=":B_13" function="internal">
        <lane id=":B_13_0" index="0" speed="8.00" length="10.13" shape="400.96,996.80 399.40,999.40 396.65,1001.05 392.80,1001.60"/>
    </edge>
    <edge id=":B_9" function="internal">
        <lane id=":B_9_0" index="0" speed="6.51" length="9.03" shape="392.80,998.40 395.25,998.05 397.00,997.00 398.05,995.25 398.40,992.80"/>
    </edge>
    <edge id=":B_10" function="internal">
        <lane id=":B_10_0" index="0" speed="13.89" length="14.40" shape="392.80,998.40 407.20,998.40"/>
    </edge>
    <edge id=":B_11" function="internal">
        <lane id=":B_11_0" index="0" speed="8.00" length="14.19" shape="392.80,998.40 396.65,998.95 399.40,1000.60 401.05,1003.35 401.60,1007.20"/>
    </edge>
    <edge id=":C_0" function="internal">
        <lane id=":C_0_0" index="0" speed="6.51" length="9.03" shape="598.40,1007.20 598.05,1004.75 597.00,1003.00 595.25,1001.95 592.80,1001.60"/>
    </edge>
    <edge id=":C_1" function="internal">
        <lane id=":C_1_0" index="0" speed="13.89" length="14.40" shape="598.40,1007.20 598.40,992.80"/>
    </edge>
    <edge id=":C_2" function="internal">
        <lane id=":C_2_0" index="0" speed="8.00" length="4.07" shape="598.40,1007.20 598.95,1003.35 599.04,1003.20"/>
    </edge>
    <edge id=":C_12" function="internal">
        <lane id=":C_12_0" index="0" speed="8.00" length="10.13" shape="599.04,1003.20 600.60,1000.60 603.35,998.95 607.20,998.40"/>
    </edge>
    <edge id=":C_3" function="internal">
        <lane id=":C_3_0" index="0" speed="6.51" length="9.03" shape="607.20,1001.60 604.75,1001.95 603.00,1003.00 601.95,1004.75 601.60,1007.20"/>
    </edge>
    <edge id=":C_4" function="internal">
        <lane id=":C_4_0" index="0" speed="13.89" length="14.40" shape="607.20,1001.60 592.80,1001.60"/>
    </edge>
    <edge id=":C_5" function="internal">
        <lane id=":C_5_0" index="0" speed="8.00" length="14.19" shape="607.20,1001.60 603.35,1001.05 600.60,999.40 598.95,996.65 598.40,992.80"/>
    </edge>
    <edge id=":C_6" function="internal">
        <lane id=":C_6_0" index="0" speed="6.51" length="9.03" shape="601.60,992.80 601.95,995.25 603.00,997.00 604.75,998.05 607.20,998.40"/>
    </edge>
    <edge id=":C_7" function="internal">
        <lane id=":C_7_0" index="0" speed="13.89" length="14.40" shape="601.60,992.80 601.60,1007.20"/>
    </edge>
    <edge id=":C_8" function="internal">
        <lane id=":C_8_0" index="0" speed="8.00" length="4.07" shape="601.60,992.80 601.05,996.65 600.96,996.80"/>
    </edge>
    <edge id=":C_13" function="internal">
        <lane id=":C_13_0" index="0" speed="8.00" length="10.13" shape="600.96,996.80 599.40,999.40 596.65,1001.05 592.80,1001.60"/>
    </edge>
    <edge id=":C_9" function="internal">
        <lane id=":C_9_0" index="0" speed="6.51" length="9.03" shape="592.80,998.40 595.25,998.05 597.00,997.00 598.05,995.25 598.40,992.80"/>
    </edge>
    <edge id=":C_10" function="internal">
        <lane id=":C_10_0" index="0" speed="13.89" length="14.40" shape="592.80,998.40 607.20,998.40"/>
    </edge>
    <edge id=":C_11" function="internal">
        <lane id=":C_11_0" index="0" speed="8.00" length="14.19" shape="592.80,998.40 596.65,998.95 599.40,1000.60 601.05,1003.35 601.60,1007.20"/>
    </edge>
    <edge id=":D_0" function="internal">
        <lane id=":D_0_0" index="0" speed="6.51" length="9.03" shape="798.40,1007.20 798.05,1004.75 797.00,1003.00 795.25,1001.95 792.80,1001.60"/>
    </edge>
    <edge id=":D_1" function="internal">
        <lane id=":D_1_0" index="0" speed="13.89" length="14.40" shape="798.40,1007.20 798.40,992.80"/>
    </edge>
    <edge id=":D_2" function="internal">
        <lane id=":D_2_0" index="0" speed="8.00" length="4.07" shape="798.40,1007.20 798.95,1003.35 799.04,1003.20"/>
    </edge>
    <edge id=":D_12" function="internal">
        <lane id=":D_12_0" index="0" speed="8.00" length="10.13" shape="799.04,1003.20 800.60,1000.60 803.35,998.95 807.20,998.40"/>
    </edge>
    <edge id=":D_3" function="internal">
        <lane id=":D_3_0" index="0" speed="6.51" length="9.03" shape="807.20,1001.60 804.75,1001.95 803.00,1003.00 801.95,1004.75 801.60,1007.20"/>
    </edge>
    <edge id=":D_4" function="internal">
        <lane id=":D_4_0" index="0" speed="13.89" length="14.40" shape="807.20,1001.60 792.80,1001.60"/>
    </edge>
    <edge id=":D_5" function="internal">
        <lane id=":D_5_0" index="0" speed="8.00" length="14.19" shape="807.20,1001.60 803.35,1001.05 800.60,999.40 798.95,996.65 798.40,992.80"/>
    </edge>
    <edge id=":D_6" function="internal">
        <lane id=":D_6_0" index="0" speed="6.51" length="9.03" shape="801.60,992.80 801.95,995.25 803.00,997.00 804.75,998.05 807.20,998.40"/>
    </edge>
    <edge id=":D_7" function="internal">
        <lane id=":D_7_0" index="0" speed="13.89" length="14.40" shape="801.60,992.80 801.60,1007.20"/>
    </edge>
    <edge id=":D_8" function="internal">
        <lane id=":D_8_0" index="0" speed="8.00" length="4.07" shape="801.60,992.80 801.05,996.65 800.96,996.80"/>
    </edge>
    <edge id=":D_13" function="internal">
        <lane id=":D_13_0" index="0" speed="8.00" length="10.13" shape="800.96,996.80 799.40,999.40 796.65,1001.05 792.80,1001.60"/>
    </edge>
    <edge id=":D_9" function="internal">
        <lane id=":D_9_0" index="0" speed="6.51" length="9.03" shape="792.80,998.40 795.25,998.05 797.00,997.00 798.05,995.25 798.40,992.80"/>
    </edge>
    <edge id=":D_10" function="internal">
        <lane id=":D_10_0" index="0" speed="13.89" length="14.40" shape="792.80,998.40 807.20,998.40"/>
    </edge>
    <edge id=":D_11" function="internal">
        <lane id=":D_11_0" index="0" speed="8.00" length="14.19" shape="792.80,998.40 796.65,998.95 799.40,1000.60 801.05,1003.35 801.60,1007.20"/>
    </edge>
    <edge id=":E_0" function="internal">
        <lane id=":E_0_0" index="0" speed="6.51" length="9.03" shape="998.40,1007.20 998.05,1004.75 997.00,1003.00 995.25,1001.95 992.80,1001.60"/>
    </edge>
    <edge id=":E_1" function="internal">
        <lane id=":E_1_0" index="0" speed="13.89" length="14.40" shape="998.40,1007.20 998.40,992.80"/>
    </edge>
    <edge id=":E_2" function="internal">
        <lane id=":E_2_0" index="0" speed="8.00" length="4.07" shape="998.40,1007.20 998.95,1003.35 999.04,1003.20"/>
    </edge>
    <edge id=":E_12" function="internal">
        <lane id=":E_12_0" index="0" speed="8.00" length="10.13" shape="999.04,1003.20 1000.60,1000.60 1003.35,998.95 1007.20,998.40"/>
    </edge>
    <edge id=":E_3" function="internal">
        <lane id=":E_3_0" index="0" speed="6.51" length="9.03" shape="1007.20,1001.60 1004.75,1001.95 1003.00,1003.00 1001.95,1004.75 1001.60,1007.20"/>
    </edge>
    <edge id=":E_4" function="internal">
        <lane id=":E_4_0" index="0" speed="13.89" length="14.40" shape="1007.20,1001.60 992.80,1001.60"/>
    </edge>
    <edge id=":E_5" function="internal">
        <lane id=":E_5_0" index="0" speed="8.00" length="14.19" shape="1007.20,1001.60 1003.35,1001.05 1000.60,999.40 998.95,996.65 998.40,992.80"/>
    </edge>
    <edge id=":E_6" function="internal">
        <lane id=":E_6_0" index="0" speed="6.51" length="9.03" shape="1001.60,992.80 1001.95,995.25 1003.00,997.00 1004.75,998.05 1007.20,998.40"/>
    </edge>
    <edge id=":E_7" function="internal">
        <lane id=":E_7_0" index="0" speed="13.89" length="14.40" shape="1001.60,992.80 1001.60,1007.20"/>
    </edge>
    <edge id=":E_8" function="internal">
        <lane id=":E_8_0" index="0" speed="8.00" length="4.07" shape="1001.60,992.80 1001.05,996.65 1000.96,996.80"/>
    </edge>
    <edge id=":E_13" function="internal">
        <lane id=":E_13_0" index="0" speed="8.00" length="10.13" shape="1000.96,996.80 999.40,999.40 996.65,1001.05 992.80,1001.60"/>
    </edge>
    <edge id=":E_9" function="internal">
        <lane id=":E_9_0" index="0" speed="6.51" length="9.03" shape="992.80,998.40 995.25,998.05 997.00,997.00 998.05,995.25 998.40,992.80"/>
    </edge>
    <edge id=":E_10" function="internal">
        <lane id=":E_10_0" index="0" speed="13.89" length="14.40" shape="992.80,998.40 1007.20,998.40"/>
    </edge>
    <edge id=":E_11" function="internal">
        <lane id=":E_11_0" index="0" speed="8.00" length="14.19" shape="992.80,998.40 996.65,998.95 999.40,1000.60 1001.05,1003.35 1001.60,1007.20"/>
    </edge>
    <edge id=":F_0" function="internal">
        <lane id=":F_0_0" index="0" speed="6.51" length="9.03" shape="198.40,807.20 198.05,804.75 197.00,803.00 195.25,801.95 192.80,801.60"/>
    </edge>
    <edge id=":F_1" function="internal">
        <lane id=":F_1_0" index="0" speed="13.89" length="14.40" shape="198.40,807.20 198.40,792.80"/>
    </edge>
    <edge id=":F_2" function="internal">
        <lane id=":F_2_0" index="0" speed="8.00" length="4.07" shape="198.40,807.20 198.95,803.35 199.04,803.20"/>
    </edge>
    <edge id=":F_12" function="internal">
        <lane id=":F_12_0" index="0" speed="8.00" length="10.13" shape="199.04,803.20 200.60,800.60 203.35,798.95 207.20,798.40"/>
    </edge>
    <edge id=":F_3" function="internal">
        <lane id=":F_3_0" index="0" speed="6.51" length="9.03" shape="207.20,801.60 204.75,801.95 203.00,803.00 201.95,804.75 201.60,807.20"/>
    </edge>
    <edge id=":F_4" function="internal">
        <lane id=":F_4_0" index="0" speed="13.89" length="14.40" shape="207.20,801.60 192.80,801.60"/>
    </edge>
    <edge id=":F_5" function="internal">
        <lane id=":F_5_0" index="0" speed="8.00" length="14.19" shape="207.20,801.60 203.35,801.05 200.60,799.40 198.95,796.65 198.40,792.80"/>
    </edge>
    <edge id=":F_6" function="internal">
        <lane id=":F_6_0" index="0" speed="6.51" length="9.03" shape="201.60,792.80 201.95,795.25 203.00,797.00 204.75,798.05 207.20,798.40"/>
    </edge>
    <edge id=":F_7" function="internal">
        <lane id=":F_7_0" index="0" speed="13.89" length="14.40" shape="201.60,792.80 201.60,807.20"/>
    </edge>
    <edge id=":F_8" function="internal">
        <lane id=":F_8_0" index="0" speed="8.00" length="4.07" shape="201.60,792.80 201.05,796.65 200.96,796.80"/>
    </edge>
    <edge id=":F_13" function="internal">
        <lane id=":F_13_0" index="0" speed="8.00" length="10.13" shape="200.96,796.80 199.40,799.40 196.65,801.05 192.80,801.60"/>
    </edge>
    <edge id=":F_9" function="internal">
        <lane id=":F_9_0" index="0" speed="6.51" length="9.03" shape="192.80,798.40 195.25,798.05 197.00,797.00 198.05,795.25 198.40,792.80"/>
    </edge>
    <edge id=":F_10" function="internal">
        <lane id=":F_10_0" index="0" speed="13.89" length="14.40" shape="192.80,798.40 207.20,798.40"/>
    </edge>
    <edge id=":F_11" function="internal">
        <lane id=":F_11_0" index="0" speed="8.00" length="14.19" shape="192.80,798.40 196.65,798.95 199.40,800.60 201.05,803.35 201.60,807.20"/>
    </edge>
    <edge id=":G_0" function="internal">
        <lane id=":G_0_0" index="0" speed="6.51" length="9.03" shape="398.40,807.20 398.05,804.75 397.00,803.00 395.25,801.95 392.80,801.60"/>
    </edge>
    <edge id=":G_1" function="internal">
        <lane id=":G_1_0" index="0" speed="13.89" length="14.40" shape="398.40,807.20 398.40,792.80"/>
    </edge>
    <edge id=":G_2" function="internal">
        <lane id=":G_2_0" index="0" speed="8.00" length="4.07" shape="398.40,807.20 398.95,803.35 399.04,803.20"/>
    </edge>
    <edge id=":G_12" function="internal">
        <lane id=":G_12_0" index="0" speed="8.00" length="10.13" shape="399.04,803.20 400.60,800.60 403.35,798.95 407.20,798.40"/>
    </edge>
    <edge id=":G_3" function="internal">
        <lane id=":G_3_0" index="0" speed="6.51" length="9.03" shape="407.20,801.60 404.75,801.95 403.00,803.00 401.95,804.75 401.60,807.20"/>
    </edge>
    <edge id=":G_4" function="internal">
        <lane id=":G_4_0" index="0" speed="13.89" length="14.40" shape="407.20,801.60 392.80,801.60"/>
    </edge>
    <edge id=":G_5" function="internal">
        <lane id=":G_5_0" index="0" speed="8.00" length="14.19" shape="407.20,801.60 403.35,801.05 400.60,799.40 398.95,796.65 398.40,792.80"/>
    </edge>
    <edge id=":G_6" function="internal">
        <lane id=":G_6_0" index="0" speed="6.51" length="9.03" shape="401.60,792.80 401.95,795.25 403.00,797.00 404.75,798.05 407.20,798.40"/>
    </edge>
    <edge id=":G_7" function="internal">
        <lane id=":G_7_0" index="0" speed="13.89" length="14.40" shape="401.60,792.80 401.60,807.20"/>
    </edge>
    <edge id=":G_8" function="internal">
        <lane id=":G_8_0" index="0" speed="8.00" length="4.07" shape="401.60,792.80 401.05,796.65 400.96,796.80"/>
    </edge>
    <edge id=":G_13" function="internal">
        <lane id=":G_13_0" index="0" speed="8.00" length="10.13" shape="400.96,796.80 399.40,799.40 396.65,801.05 392.80,801.60"/>
    </edge>
    <edge id=":G_9" function="internal">
        <lane id=":G_9_0" index="0" speed="6.51" length="9.03" shape="392.80,798.40 395.25,798.05 397.00,797.00 398.05,795.25 398.40,792.80"/>
    </edge>
    <edge id=":G_10" function="internal">
        <lane id=":G_10_0" index="0" speed="13.89" length="14.40" shape="392.80,798.40 407.20,798.40"/>
    </edge>
    <edge id=":G_11" function="internal">
        <lane id=":G_11_0" index="0" speed="8.00" length="14.19" shape="392.80,798.40 396.65,798.95 399.40,800.60 401.05,803.35 401.60,807.20"/>
    </edge>
    <edge id=":H_0" function="internal">
        <lane id=":H_0_0" index="0" speed="6.51" length="9.03" shape="598.40,807.20 598.05,804.75 597.00,803.00 595.25,801.95 592.80,801.60"/>
    </edge>
    <edge id=":H_1" function="internal">
        <lane id=":H_1_0" index="0" speed="13.89" length="14.40" shape="598.40,807.20 598.40,792.80"/>
    </edge>
    <edge id=":H_2" function="internal">
        <lane id=":H_2_0" index="0" speed="8.00" length="4.07" shape="598.40,807.20 598.95,803.35 599.04,803.20"/>
    </edge>
    <edge id=":H_12" function="internal">
        <lane id=":H_12_0" index="0" speed="8.00" length="10.13" shape="599.04,803.20 600.60,800.60 603.35,798.95 607.20,798.40"/>
    </edge>
    <edge id=":H_3" function="internal">
        <lane id=":H_3_0" index="0" speed="6.51" length="9.03" shape="607.20,801.60 604.75,801.95 603.00,803.00 601.95,804.75 601.60,807.20"/>
    </edge>
    <edge id=":H_4" function="internal">
        <lane id=":H_4_0" index="0" speed="13.89" length="14.40" shape="607.20,801.60 592.80,801.60"/>
    </edge>
    <edge id=":H_5" function="internal">
        <lane id=":H_5_0" index="0" speed="8.00" length="14.19" shape="607.20,801.60 603.35,801.05 600.60,799.40 598.95,796.65 598.40,792.80"/>
    </edge>
    <edge id=":H_6" function="internal">
        <lane id=":H_6_0" index="0" speed="6.51" length="9.03" shape="601.60,792.80 601.95,795.25 603.00,797.00 604.75,798.05 607.20,798.40"/>
    </edge>
    <edge id=":H_7" function="internal">
        <lane id=":H_7_0" index="0" speed="13.89" length="14.40" shape="601.60,792.80 601.60,807.20"/>
    </edge>
    <edge id=":H_8" function="internal">
        <lane id=":H_8_0" index="0" speed="8.00" length="4.07" shape="601.60,792.80 601.05,796.65 600.96,796.80"/>
    </edge>
    <edge id=":H_13" function="internal">
        <lane id=":H_13_0" index="0" speed="8.00" length="10.13" shape="600.96,796.80 599.40,799.40 596.65,801.05 592.80,801.60"/>
    </edge>
    <edge id=":H_9" function="internal">
        <lane id=":H_9_0" index="0" speed="6.51" length="9.03" shape="592.80,798.40 595.25,798.05 597.00,797.00 598.05,795.25 598.40,792.80"/>
    </edge>
    <edge id=":H_10" function="internal">
        <lane id=":H_10_0" index="0" speed="13.89" length="14.40" shape="592.80,798.40 607.20,798.40"/>
    </edge>
    <edge id=":H_11" function="internal">
        <lane id=":H_11_0" index="0" speed="8.00" length="14.19" shape="592.80,798.40 596.65,798.95 599.40,800.60 601.05,803.35 601.60,807.20"/>
    </edge>
    <edge id=":I_0" function="internal">
        <lane id=":I_0_0" index="0" speed="6.51" length="9.03" shape="798.40,807.20 798.05,804.75 797.00,803.00 795.25,801.95 792.80,801.60"/>
    </edge>
    <edge id=":I_1" function="internal">
        <lane id=":I_1_0" index="0" speed="13.89" length="14.40" shape="798.40,807.20 798.40,792.80"/>
    </edge>
    <edge id=":I_2" function="internal">
        <lane id=":I_2_0" index="0" speed="8.00" length="4.07" shape="798.40,807.20 798.95,803.35 799.04,803.20"/>
    </edge>
    <edge id=":I_12" function="internal">
        <lane id=":I_12_0" index="0" speed="8.00" length="10.13" shape="799.04,803.20 800.60,800.60 803.35,798.95 807.20,798.40"/>
    </edge>
    <edge id=":I_3" function="internal">
        <lane id=":I_3_0" index="0" speed="6.51" length="9.03" shape="807.20,801.60 804.75,801.95 803.00,803.00 801.95,804.75 801.60,807.20"/>
    </edge>
    <edge id=":I_4" function="internal">
        <lane id=":I_4_0" index="0" speed="13.89" length="14.40" shape="807.20,801.60 792.80,801.60"/>
    </edge>
    <edge id=":I_5" function="internal">
        <lane id=":I_5_0" index="0" speed="8.00" length="14.19" shape="807.20,801.60 803.35,801.05 800.60,799.40 798.95,796.65 798.40,792.80"/>
    </edge>
    <edge id=":I_6" function="internal">
        <lane id=":I_6_0" index="0" speed="6.51" length="9.03" shape="801.60,792.80 801.95,795.25 803.00,797.00 804.75,798.05 807.20,798.40"/>
    </edge>
    <edge id=":I_7" function="internal">
        <lane id=":I_7_0" index="0" speed="13.89" length="14.40" shape="801.60,792.80 801.60,807.20"/>
    </edge>
    <edge id=":I_8" function="internal">
        <lane id=":I_8_0" index="0" speed="8.00" length="4.07" shape="801.60,792.80 801.05,796.65 800.96,796.80"/>
    </edge>
    <edge id=":I_13" function="internal">
        <lane id=":I_13_0" index="0" speed="8.00" length="10.13" shape="800.96,796.80 799.40,799.40 796.65,801.05 792.80,801.60"/>
    </edge>
    <edge id=":I_9" function="internal">
        <lane id=":I_9_0" index="0" speed="6.51" length="9.03" shape="792.80,798.40 795.25,798.05 797.00,797.00 798.05,795.25 798.40,792.80"/>
    </edge>
    <edge id=":I_10" function="internal">
        <lane id=":I_10_0" index="0" speed="13.89" length="14.40" shape="792.80,798.40 807.20,798.40"/>
    </edge>
    <edge id=":I_11" function="internal">
        <lane id=":I_11_0" index="0" speed="8.00" length="14.19" shape="792.80,798.40 796.65,798.95 799.40,800.60 801.05,803.35 801.60,807.20"/>
    </edge>
    <edge id=":J_0" function="internal">
        <lane id=":J_0_0" index="0" speed="6.51" length="9.03" shape="998.40,807.20 998.05,804.75 997.00,803.00 995.25,801.95 992.80,801.60"/>
    </edge>
    <edge id=":J_1" function="internal">
        <lane id=":J_1_0" index="0" speed="13.89" length="14.40" shape="998.40,807.20 998.40,792.80"/>
    </edge>
    <edge id=":J_2" function="internal">
        <lane id=":J_2_0" index="0" speed="8.00" length="4.07" shape="998.40,807.20 998.95,803.35 999.04,803.20"/>
    </edge>
    <edge id=":J_12" function="internal">
        <lane id=":J_12_0" index="0" speed="8.00" length="10.13" shape="999.04,803.20 1000.60,800.60 1003.35,798.95 1007.20,798.40"/>
    </edge>
    <edge id=":J_3" function="internal">
        <lane id=":J_3_0" index="0" speed="6.51" length="9.03" shape="1007.20,801.60 1004.75,801.95 1003.00,803.00 1001.95,804.75 1001.60,807.20"/>
    </edge>
    <edge id=":J_4" function="internal">
        <lane id=":J_4_0" index="0" speed="13.89" length="14.40" shape="1007.20,801.60 992.80,801.60"/>
    </edge>
    <edge id=":J_5" function="internal">
        <lane id=":J_5_0" index="0" speed="8.00" length="14.19" shape="1007.20,801.60 1003.35,801.05 1000.60,799.40 998.95,796.65 998.40,792.80"/>
    </edge>
    <edge id=":J_6" function="internal">
        <lane id=":J_6_0" index="0" speed="6.51" length="9.03" shape="1001.60,792.80 1001.95,795.25 1003.00,797.00 1004.75,798.05 1007.20,798.40"/>
    </edge>
    <edge id=":J_7" function="internal">
        <lane id=":J_7_0" index="0" speed="13.89" length="14.40" shape="1001.60,792.80 1001.60,807.20"/>
    </edge>
    <edge id=":J_8" function="internal">
        <lane id=":J_8_0" index="0" speed="8.00" length="4.07" shape="1001.60,792.80 1001.05,796.65 1000.96,796.80"/>
    </edge>
    <edge id=":J_13" function="internal">
        <lane id=":J_13_0" index="0" speed="8.00" length="10.13" shape="1000.96,796.80 999.40,799.40 996.65,801.05 992.80,801.60"/>
    </edge>
    <edge id=":J_9" function="internal">
        <lane id=":J_9_0" index="0" speed="6.51" length="9.03" shape="992.80,798.40 995.25,798.05 997.00,797.00 998.05,795.25 998.40,792.80"/>
    </edge>
    <edge id=":J_10" function="internal">
        <lane id=":J_10_0" index="0" speed="13.89" length="14.40" shape="992.80,798.40 1007.20,798.40"/>
    </edge>
    <edge id=":J_11" function="internal">
        <lane id=":J_11_0" index="0" speed="8.00" length="14.19" shape="992.80,798.40 996.65,798.95 999.40,800.60 1001.05,803.35 1001.60,807.20"/>
    </edge>
    <edge id=":K_0" function="internal">
        <lane id=":K_0_0" index="0" speed="6.51" length="9.03" shape="198.40,607.20 198.05,604.75 197.00,603.00 195.25,601.95 192.80,601.60"/>
    </edge>
    <edge id=":K_1" function="internal">
        <lane id=":K_1_0" index="0" speed="13.89" length="14.40" shape="198.40,607.20 198.40,592.80"/>
    </edge>
    <edge id=":K_2" function="internal">
        <lane id=":K_2_0" index="0" speed="8.00" length="4.07" shape="198.40,607.20 198.95,603.35 199.04,603.20"/>
    </edge>
    <edge id=":K_12" function="internal">
        <lane id=":K_12_0" index="0" speed="8.00" length="10.13" shape="199.04,603.20 200.60,600.60 203.35,598.95 207.20,598.40"/>
    </edge>
    <edge id=":K_3" function="internal">
        <lane id=":K_3_0" index="0" speed="6.51" length="9.03" shape="207.20,601.60 204.75,601.95 203.00,603.00 201.95,604.75 201.60,607.20"/>
    </edge>
    <edge id=":K_4" function="internal">
        <lane id=":K_4_0" index="0" speed="13.89" length="14.40" shape="207.20,601.60 192.80,601.60"/>
    </edge>
    <edge id=":K_5" function="internal">
        <lane id=":K_5_0" index="0" speed="8.00" length="14.19" shape="207.20,601.60 203.35,601.05 200.60,599.40 198.95,596.65 198.40,592.80"/>
    </edge>
    <edge id=":K_6" function="internal">
        <lane id=":K_6_0" index="0" speed="6.51" length="9.03" shape="201.60,592.80 201.95,595.25 203.00,597.00 204.75,598.05 207.20,598.40"/>
    </edge>
    <edge id=":K_7" function="internal">
        <lane id=":K_7_0" index="0" speed="13.89" length="14.40" shape="201.60,592.80 201.60,607.20"/>
    </edge>
    <edge id=":K_8" function="internal">
        <lane id=":K_8_0" index="0" speed="8.00" length="4.07" shape="201.60,592.80 201.05,596.65 200.96,596.80"/>
    </edge>
    <edge id=":K_13" function="internal">
        <lane id=":K_13_0" index="0" speed="8.00" length="10.13" shape="200.96,596.80 199.40,599.40 196.65,601.05 192.80,601.60"/>
    </edge>
    <edge id=":K_9" function="internal">
        <lane id=":K_9_0" index="0" speed="6.51" length="9.03" shape="192.80,598.40 195.25,598.05 197.00,597.00 198.05,595.25 198.40,592.80"/>
    </edge>
    <edge id=":K_10" function="internal">
        <lane id=":K_10_0" index="0" speed="13.89" length="14.40" shape="192.80,598.40 207.20,598.40"/>
    </edge>
    <edge id=":K_11" function="internal">
        <lane id=":K_11_0" index="0" speed="8.00" length="14.19" shape="192.80,598.40 196.65,598.95 199.40,600.60 201.05,603.35 201.60,607.20"/>
    </edge>
    <edge id=":L_0" function="internal">
        <lane id=":L_0_0" index="0" speed="6.51" length="9.03" shape="398.40,607.20 398.05,604.75 397.00,603.00 395.25,601.95 392.80,601.60"/>
    </edge>
    <edge id=":L_1" function="internal">
        <lane id=":L_1_0" index="0" speed="13.89" length="14.40" shape="398.40,607.20 398.40,592.80"/>
    </edge>
    <edge id=":L_2" function="internal">
        <lane id=":L_2_0" index="0" speed="8.00" length="4.07" shape="398.40,607.20 398.95,603.35 399.04,603.20"/>
    </edge>
    <edge id=":L_12" function="internal">
        <lane id=":L_12_0" index="0" speed="8.00" length="10.13" shape="399.04,603.20 400.60,600.60 403.35,598.95 407.20,598.40"/>
    </edge>
    <edge id=":L_3" function="internal">