<?xml version="1.0" encoding="UTF-8"?>

<!-- generated on Wed 07 Apr 2021 11:13:10 CEST by Eclipse SUMO netedit Version 1.4.0
<configuration xmlns:xsi="http://www.w3.org/2001/XMLSchema-instance" xsi:noNamespaceSchemaLocation="http://sumo.dlr.de/xsd/netconvertConfiguration.xsd">

    <input>
        <sumo-net-file value="project.net.xml"/>
    </input>

    <output>
        <output-file value="project.net.xml"/>
    </output>

    <processing>
        <geometry.min-radius.fix.railways value="false"/>
        <geometry.max-grade.fix value="false"/>
        <offset.disable-normalization value="true"/>
        <lefthand value="false"/>
    </processing>

    <junctions>
        <no-internal-links value="false"/>
        <no-turnarounds value="true"/>
        <junctions.corner-detail value="0"/>
        <junctions.limit-turn-speed value="-1"/>
        <rectangular-lane-cut value="false"/>
    </junctions>

    <pedestrian>
        <walkingareas value="false"/>
    </pedestrian>

    <report>
        <aggregate-warnings value="5"/>
    </report>

</configuration>
-->

<net version="1.3" xmlns:xsi="http://www.w3.org/2001/XMLSchema-instance" xsi:noNamespaceSchemaLocation="http://sumo.dlr.de/xsd/net_file.xsd">

    <location netOffset="0.00,0.00" convBoundary="-600.00,0.00,0.00,600.00" origBoundary="-10000000000.00,-10000000000.00,10000000000.00,10000000000.00" projParameter="!"/>

    <edge id=":A_0" function="internal">
        <lane id=":A_0_0" index="0" speed="13.89" length="9.03" shape="-451.60,457.20 -451.95,454.75 -453.00,453.00 -454.75,451.95 -457.20,451.60"/>
    </edge>
    <edge id=":A_1" function="internal">
        <lane id=":A_1_0" index="0" speed="13.89" length="14.40" shape="-451.60,457.20 -451.60,442.80"/>
    </edge>
    <edge id=":A_2" function="internal">
        <lane id=":A_2_0" index="0" speed="13.89" length="5.93" shape="-451.60,457.20 -451.05,453.35 -450.00,451.60"/>
    </edge>
    <edge id=":A_12" function="internal">
        <lane id=":A_12_0" index="0" speed="13.89" length="8.26" shape="-450.00,451.60 -449.40,450.60 -446.65,448.95 -442.80,448.40"/>
    </edge>
    <edge id=":A_3" function="internal">
        <lane id=":A_3_0" index="0" speed="13.89" length="9.03" shape="-442.80,451.60 -445.25,451.95 -447.00,453.00 -448.05,454.75 -448.40,457.20"/>
    </edge>
    <edge id=":A_4" function="internal">
        <lane id=":A_4_0" index="0" speed="13.89" length="14.40" shape="-442.80,451.60 -457.20,451.60"/>
    </edge>
    <edge id=":A_5" function="internal">
        <lane id=":A_5_0" index="0" speed="13.89" length="14.19" shape="-442.80,451.60 -446.65,451.05 -449.40,449.40 -451.05,446.65 -451.60,442.80"/>
    </edge>
    <edge id=":A_6" function="internal">
        <lane id=":A_6_0" index="0" speed="13.89" length="9.03" shape="-448.40,442.80 -448.05,445.25 -447.00,447.00 -445.25,448.05 -442.80,448.40"/>
    </edge>
    <edge id=":A_7" function="internal">
        <lane id=":A_7_0" index="0" speed="13.89" length="14.40" shape="-448.40,442.80 -448.40,457.20"/>
    </edge>
    <edge id=":A_8" function="internal">
        <lane id=":A_8_0" index="0" speed="13.89" length="5.93" shape="-448.40,442.80 -448.95,446.65 -450.00,448.40"/>
    </edge>
    <edge id=":A_13" function="internal">
        <lane id=":A_13_0" index="0" speed="13.89" length="8.26" shape="-450.00,448.40 -450.60,449.40 -453.35,451.05 -457.20,451.60"/>
    </edge>
    <edge id=":A_9" function="internal">
        <lane id=":A_9_0" index="0" speed="13.89" length="9.03" shape="-457.20,448.40 -454.75,448.05 -453.00,447.00 -451.95,445.25 -451.60,442.80"/>
    </edge>
    <edge id=":A_10" function="internal">
        <lane id=":A_10_0" index="0" speed="13.89" length="14.40" shape="-457.20,448.40 -442.80,448.40"/>
    </edge>
    <edge id=":A_11" function="internal">
        <lane id=":A_11_0" index="0" speed="13.89" length="14.19" shape="-457.20,448.40 -453.35,448.95 -450.60,450.60 -448.95,453.35 -448.40,457.20"/>
    </edge>
    <edge id=":A_w0" function="walkingarea">
        <lane id=":A_w0_0" index="0" allow="pedestrian" speed="1.00" length="10.51" width="3.20" shape="-453.20,457.20 -450.00,457.20 -450.00,457.20 -446.80,457.20 -442.80,453.20 -442.80,450.00 -442.80,450.00 -442.80,446.80 -446.80,442.80 -450.00,442.80 -450.00,442.80 -453.20,442.80 -457.20,446.80 -457.20,450.00 -457.20,450.00 -457.20,453.20"/>
    </edge>
    <edge id=":B_0" function="internal">
        <lane id=":B_0_0" index="0" speed="13.89" length="9.03" shape="-301.60,457.20 -301.95,454.75 -303.00,453.00 -304.75,451.95 -307.20,451.60"/>
    </edge>
    <edge id=":B_1" function="internal">
        <lane id=":B_1_0" index="0" speed="13.89" length="14.40" shape="-301.60,457.20 -301.60,442.80"/>
    </edge>
    <edge id=":B_2" function="internal">
        <lane id=":B_2_0" index="0" speed="13.89" length="5.93" shape="-301.60,457.20 -301.05,453.35 -300.00,451.60"/>
    </edge>
    <edge id=":B_12" function="internal">
        <lane id=":B_12_0" index="0" speed="13.89" length="8.26" shape="-300.00,451.60 -299.40,450.60 -296.65,448.95 -292.80,448.40"/>
    </edge>
    <edge id=":B_3" function="internal">
        <lane id=":B_3_0" index="0" speed="13.89" length="9.03" shape="-292.80,451.60 -295.25,451.95 -297.00,453.00 -298.05,454.75 -298.40,457.20"/>
    </edge>
    <edge id=":B_4" function="internal">
        <lane id=":B_4_0" index="0" speed="13.89" length="14.40" shape="-292.80,451.60 -307.20,451.60"/>
    </edge>
    <edge id=":B_5" function="internal">
        <lane id=":B_5_0" index="0" speed="13.89" length="14.19" shape="-292.80,451.60 -296.65,451.05 -299.40,449.40 -301.05,446.65 -301.60,442.80"/>
    </edge>
    <edge id=":B_6" function="internal">
        <lane id=":B_6_0" index="0" speed="13.89" length="9.03" shape="-298.40,442.80 -298.05,445.25 -297.00,447.00 -295.25,448.05 -292.80,448.40"/>
    </edge>
    <edge id=":B_7" function="internal">
        <lane id=":B_7_0" index="0" speed="13.89" length="14.40" shape="-298.40,442.80 -298.40,457.20"/>
    </edge>
    <edge id=":B_8" function="internal">
        <lane id=":B_8_0" index="0" speed="13.89" length="5.93" shape="-298.40,442.80 -298.95,446.65 -300.00,448.40"/>
    </edge>
    <edge id=":B_13" function="internal">
        <lane id=":B_13_0" index="0" speed="13.89" length="8.26" shape="-300.00,448.40 -300.60,449.40 -303.35,451.05 -307.20,451.60"/>
    </edge>
    <edge id=":B_9" function="internal">
        <lane id=":B_9_0" index="0" speed="13.89" length="9.03" shape="-307.20,448.40 -304.75,448.05 -303.00,447.00 -301.95,445.25 -301.60,442.80"/>
    </edge>
    <edge id=":B_10" function="internal">
        <lane id=":B_10_0" index="0" speed="13.89" length="14.40" shape="-307.20,448.40 -292.80,448.40"/>
    </edge>
    <edge id=":B_11" function="internal">
        <lane id=":B_11_0" index="0" speed="13.89" length="14.19" shape="-307.20,448.40 -303.35,448.95 -300.60,450.60 -298.95,453.35 -298.40,457.20"/>
    </edge>
    <edge id=":B_w0" function="walkingarea">
        <lane id=":B_w0_0" index="0" allow="pedestrian" speed="1.00" length="10.51" width="3.20" shape="-303.20,457.20 -300.00,457.20 -300.00,457.20 -296.80,457.20 -292.80,453.20 -292.80,450.00 -292.80,450.00 -292.80,446.80 -296.80,442.80 -300.00,442.80 -300.00,442.80 -303.20,442.80 -307.20,446.80 -307.20,450.00 -307.20,450.00 -307.20,453.20"/>
    </edge>
    <edge id=":C_0" function="internal">
        <lane id=":C_0_0" index="0" speed="13.89" length="9.03" shape="-151.60,457.20 -151.95,454.75 -153.00,453.00 -154.75,451.95 -157.20,451.60"/>
    </edge>
    <edge id=":C_1" function="internal">
        <lane id=":C_1_0" index="0" speed="13.89" length="14.40" shape="-151.60,457.20 -151.60,442.80"/>
    </edge>
    <edge id=":C_2" function="internal">
        <lane id=":C_2_0" index="0" speed="13.89" length="5.93" shape="-151.60,457.20 -151.05,453.35 -150.00,451.60"/>
    </edge>
    <edge id=":C_12" function="internal">
        <lane id=":C_12_0" index="0" speed="13.89" length="8.26" shape="-150.00,451.60 -149.40,450.60 -146.65,448.95 -142.80,448.40"/>
    </edge>
    <edge id=":C_3" function="internal">
        <lane id=":C_3_0" index="0" speed="13.89" length="9.03" shape="-142.80,451.60 -145.25,451.95 -147.00,453.00 -148.05,454.75 -148.40,457.20"/>
    </edge>
    <edge id=":C_4" function="internal">
        <lane id=":C_4_0" index="0" speed="13.89" length="14.40" shape="-142.80,451.60 -157.20,451.60"/>
    </edge>
    <edge id=":C_5" function="internal">
        <lane id=":C_5_0" index="0" speed="13.89" length="14.19" shape="-142.80,451.60 -146.65,451.05 -149.40,449.40 -151.05,446.65 -151.60,442.80"/>
    </edge>
    <edge id=":C_6" function="internal">
        <lane id=":C_6_0" index="0" speed="13.89" length="9.03" shape="-148.40,442.80 -148.05,445.25 -147.00,447.00 -145.25,448.05 -142.80,448.40"/>
    </edge>
    <edge id=":C_7" function="internal">
        <lane id=":C_7_0" index="0" speed="13.89" length="14.40" shape="-148.40,442.80 -148.40,457.20"/>
    </edge>
    <edge id=":C_8" function="internal">
        <lane id=":C_8_0" index="0" speed="13.89" length="5.93" shape="-148.40,442.80 -148.95,446.65 -150.00,448.40"/>
    </edge>
    <edge id=":C_13" function="internal">
        <lane id=":C_13_0" index="0" speed="13.89" length="8.26" shape="-150.00,448.40 -150.60,449.40 -153.35,451.05 -157.20,451.60"/>
    </edge>
    <edge id=":C_9" function="internal">
        <lane id=":C_9_0" index="0" speed="13.89" length="9.03" shape="-157.20,448.40 -154.75,448.05 -153.00,447.00 -151.95,445.25 -151.60,442.80"/>
    </edge>
    <edge id=":C_10" function="internal">
        <lane id=":C_10_0" index="0" speed="13.89" length="14.40" shape="-157.20,448.40 -142.80,448.40"/>
    </edge>
    <edge id=":C_11" function="internal">
        <lane id=":C_11_0" index="0" speed="13.89" length="14.19" shape="-157.20,448.40 -153.35,448.95 -150.60,450.60 -148.95,453.35 -148.40,457.20"/>
    </edge>
    <edge id=":C_w0" function="walkingarea">
        <lane id=":C_w0_0" index="0" allow="pedestrian" speed="1.00" length="10.51" width="3.20" shape="-153.20,457.20 -150.00,457.20 -150.00,457.20 -146.80,457.20 -142.80,453.20 -142.80,450.00 -142.80,450.00 -142.80,446.80 -146.80,442.80 -150.00,442.80 -150.00,442.80 -153.20,442.80 -157.20,446.80 -157.20,450.00 -157.20,450.00 -157.20,453.20"/>
    </edge>
    <edge id=":D_0" function="internal">
        <lane id=":D_0_0" index="0" speed="13.89" length="9.03" shape="-451.60,307.20 -451.95,304.75 -453.00,303.00 -454.75,301.95 -457.20,301.60"/>
    </edge>
    <edge id=":D_1" function="internal">
        <lane id=":D_1_0" index="0" speed="13.89" length="14.40" shape="-451.60,307.20 -451.60,292.80"/>
    </edge>
    <edge id=":D_2" function="internal">
        <lane id=":D_2_0" index="0" speed="13.89" length="5.93" shape="-451.60,307.20 -451.05,303.35 -450.00,301.60"/>
    </edge>
    <edge id=":D_12" function="internal">
        <lane id=":D_12_0" index="0" speed="13.89" length="8.26" shape="-450.00,301.60 -449.40,300.60 -446.65,298.95 -442.80,298.40"/>
    </edge>
    <edge id=":D_3" function="internal">
        <lane id=":D_3_0" index="0" speed="13.89" length="9.03" shape="-442.80,301.60 -445.25,301.95 -447.00,303.00 -448.05,304.75 -448.40,307.20"/>
    </edge>
    <edge id=":D_4" function="internal">
        <lane id=":D_4_0" index="0" speed="13.89" length="14.40" shape="-442.80,301.60 -457.20,301.60"/>
    </edge>
    <edge id=":D_5" function="internal">
        <lane id=":D_5_0" index="0" speed="13.89" length="14.19" shape="-442.80,301.60 -446.65,301.05 -449.40,299.40 -451.05,296.65 -451.60,292.80"/>
    </edge>
    <edge id=":D_6" function="internal">
        <lane id=":D_6_0" index="0" speed="13.89" length="9.03" shape="-448.40,292.80 -448.05,295.25 -447.00,297.00 -445.25,298.05 -442.80,298.40"/>
    </edge>
    <edge id=":D_7" function="internal">
        <lane id=":D_7_0" index="0" speed="13.89" length="14.40" shape="-448.40,292.80 -448.40,307.20"/>
    </edge>
    <edge id=":D_8" function="internal">
        <lane id=":D_8_0" index="0" speed="13.89" length="5.93" shape="-448.40,292.80 -448.95,296.65 -450.00,298.40"/>
    </edge>
    <edge id=":D_13" function="internal">
        <lane id=":D_13_0" index="0" speed="13.89" length="8.26" shape="-450.00,298.40 -450.60,299.40 -453.35,301.05 -457.20,301.60"/>
    </edge>
    <edge id=":D_9" function="internal">
        <lane id=":D_9_0" index="0" speed="13.89" length="9.03" shape="-457.20,298.40 -454.75,298.05 -453.00,297.00 -451.95,295.25 -451.60,292.80"/>
    </edge>
    <edge id=":D_10" function="internal">
        <lane id=":D_10_0" index="0" speed="13.89" length="14.40" shape="-457.20,298.40 -442.80,298.40"/>
    </edge>
    <edge id=":D_11" function="internal">
        <lane id=":D_11_0" index="0" speed="13.89" length="14.19" shape="-457.20,298.40 -453.35,298.95 -450.60,300.60 -448.95,303.35 -448.40,307.20"/>
    </edge>
    <edge id=":D_w0" function="walkingarea">
        <lane id=":D_w0_0" index="0" allow="pedestrian" speed="1.00" length="10.51" width="3.20" shape="-453.20,307.20 -450.00,307.20 -450.00,307.20 -446.80,307.20 -442.80,303.20 -442.80,300.00 -442.80,300.00 -442.80,296.80 -446.80,292.80 -450.00,292.80 -450.00,292.80 -453.20,292.80 -457.20,296.80 -457.20,300.00 -457.20,300.00 -457.20,303.20"/>
    </edge>
    <edge id=":E_0" function="internal">
        <lane id=":E_0_0" index="0" speed="13.89" length="9.03" shape="-301.60,307.20 -301.95,304.75 -303.00,303.00 -304.75,301.95 -307.20,301.60"/>
    </edge>
    <edge id=":E_1" function="internal">
        <lane id=":E_1_0" index="0" speed="13.89" length="14.40" shape="-301.60,307.20 -301.60,292.80"/>
    </edge>
    <edge id=":E_2" function="internal">
        <lane id=":E_2_0" index="0" speed="13.89" length="5.93" shape="-301.60,307.20 -301.05,303.35 -300.00,301.60"/>
    </edge>
    <edge id=":E_12" function="internal">
        <lane id=":E_12_0" index="0" speed="13.89" length="8.26" shape="-300.00,301.60 -299.40,300.60 -296.65,298.95 -292.80,298.40"/>
    </edge>
    <edge id=":E_3" function="internal">
        <lane id=":E_3_0" index="0" speed="13.89" length="9.03" shape="-292.80,301.60 -295.25,301.95 -297.00,303.00 -298.05,304.75 -298.40,307.20"/>
    </edge>
    <edge id=":E_4" function="internal">
        <lane id=":E_4_0" index="0" speed="13.89" length="14.40" shape="-292.80,301.60 -307.20,301.60"/>
    </edge>
    <edge id=":E_5" function="internal">
        <lane id=":E_5_0" index="0" speed="13.89" length="14.19" shape="-292.80,301.60 -296.65,301.05 -299.40,299.40 -301.05,296.65 -301.60,292.80"/>
    </edge>
    <edge id=":E_6" function="internal">
        <lane id=":E_6_0" index="0" speed="13.89" length="9.03" shape="-298.40,292.80 -298.05,295.25 -297.00,297.00 -295.25,298.05 -292.80,298.40"/>
    </edge>
    <edge id=":E_7" function="internal">
        <lane id=":E_7_0" index="0" speed="13.89" length="14.40" shape="-298.40,292.80 -298.40,307.20"/>
    </edge>
    <edge id=":E_8" function="internal">
        <lane id=":E_8_0" index="0" speed="13.89" length="5.93" shape="-298.40,292.80 -298.95,296.65 -300.00,298.40"/>
    </edge>
    <edge id=":E_13" function="internal">
        <lane id=":E_13_0" index="0" speed="13.89" length="8.26" shape="-300.00,298.40 -300.60,299.40 -303.35,301.05 -307.20,301.60"/>
    </edge>
    <edge id=":E_9" function="internal">
        <lane id=":E_9_0" index="0" speed="13.89" length="9.03" shape="-307.20,298.40 -304.75,298.05 -303.00,297.00 -301.95,295.25 -301.60,292.80"/>
    </edge>
    <edge id=":E_10" function="internal">
        <lane id=":E_10_0" index="0" speed="13.89" length="14.40" shape="-307.20,298.40 -292.80,298.40"/>
    </edge>
    <edge id=":E_11" function="internal">
        <lane id=":E_11_0" index="0" speed="13.89" length="14.19" shape="-307.20,298.40 -303.35,298.95 -300.60,300.60 -298.95,303.35 -298.40,307.20"/>
    </edge>
    <edge id=":E_w0" function="walkingarea">
        <lane id=":E_w0_0" index="0" allow="pedestrian" speed="1.00" length="10.51" width="3.20" shape="-303.20,307.20 -300.00,307.20 -300.00,307.20 -296.80,307.20 -292.80,303.20 -292.80,300.00 -292.80,300.00 -292.80,296.80 -296.80,292.80 -300.00,292.80 -300.00,292.80 -303.20,292.80 -307.20,296.80 -307.20,300.00 -307.20,300.00 -307.20,303.20"/>
    </edge>
    <edge id=":F_0" function="internal">
        <lane id=":F_0_0" index="0" speed="13.89" length="9.03" shape="-151.60,307.20 -151.95,304.75 -153.00,303.00 -154.75,301.95 -157.20,301.60"/>
    </edge>
    <edge id=":F_1" function="internal">
        <lane id=":F_1_0" index="0" speed="13.89" length="14.40" shape="-151.60,307.20 -151.60,292.80"/>
    </edge>
    <edge id=":F_2" function="internal">
        <lane id=":F_2_0" index="0" speed="13.89" length="5.93" shape="-151.60,307.20 -151.05,303.35 -150.00,301.60"/>
    </edge>
    <edge id=":F_12" function="internal">
        <lane id=":F_12_0" index="0" speed="13.89" length="8.26" shape="-150.00,301.60 -149.40,300.60 -146.65,298.95 -142.80,298.40"/>
    </edge>
    <edge id=":F_3" function="internal">
        <lane id=":F_3_0" index="0" speed="13.89" length="9.03" shape="-142.80,301.60 -145.25,301.95 -147.00,303.00 -148.05,304.75 -148.40,307.20"/>
    </edge>
    <edge id=":F_4" function="internal">
        <lane id=":F_4_0" index="0" speed="13.89" length="14.40" shape="-142.80,301.60 -157.20,301.60"/>
    </edge>
    <edge id=":F_5" function="internal">
        <lane id=":F_5_0" index="0" speed="13.89" length="14.19" shape="-142.80,301.60 -146.65,301.05 -149.40,299.40 -151.05,296.65 -151.60,292.80"/>
    </edge>
    <edge id=":F_6" function="internal">
        <lane id=":F_6_0" index="0" speed="13.89" length="9.03" shape="-148.40,292.80 -148.05,295.25 -147.00,297.00 -145.25,298.05 -142.80,298.40"/>
    </edge>
    <edge id=":F_7" function="internal">
        <lane id=":F_7_0" index="0" speed="13.89" length="14.40" shape="-148.40,292.80 -148.40,307.20"/>
    </edge>
    <edge id=":F_8" function="internal">
        <lane id=":F_8_0" index="0" speed="13.89" length="5.93" shape="-148.40,292.80 -148.95,296.65 -150.00,298.40"/>
    </edge>
    <edge id=":F_13" function="internal">
        <lane id=":F_13_0" index="0" speed="13.89" length="8.26" shape="-150.00,298.40 -150.60,299.40 -153.35,301.05 -157.20,301.60"/>
    </edge>
    <edge id=":F_9" function="internal">
        <lane id=":F_9_0" index="0" speed="13.89" length="9.03" shape="-157.20,298.40 -154.75,298.05 -153.00,297.00 -151.95,295.25 -151.60,292.80"/>
    </edge>
    <edge id=":F_10" function="internal">
        <lane id=":F_10_0" index="0" speed="13.89" length="14.40" shape="-157.20,298.40 -142.80,298.40"/>
    </edge>
    <edge id=":F_11" function="internal">
        <lane id=":F_11_0" index="0" speed="13.89" length="14.19" shape="-157.20,298.40 -153.35,298.95 -150.60,300.60 -148.95,303.35 -148.40,307.20"/>
    </edge>
    <edge id=":F_w0" function="walkingarea">
        <lane id=":F_w0_0" index="0" allow="pedestrian" speed="1.00" length="10.51" width="3.20" shape="-153.20,307.20 -150.00,307.20 -150.00,307.20 -146.80,307.20 -142.80,303.20 -142.80,300.00 -142.80,300.00 -142.80,296.80 -146.80,292.80 -150.00,292.80 -150.00,292.80 -153.20,292.80 -157.20,296.80 -157.20,300.00 -157.20,300.00 -157.20,303.20"/>
    </edge>
    <edge id=":G_0" function="internal">
        <lane id=":G_0_0" index="0" speed="13.89" length="9.03" shape="-451.60,157.20 -451.95,154.75 -453.00,153.00 -454.75,151.95 -457.20,151.60"/>
    </edge>
    <edge id=":G_1" function="internal">
        <lane id=":G_1_0" index="0" speed="13.89" length="14.40" shape="-451.60,157.20 -451.60,142.80"/>
    </edge>
    <edge id=":G_2" function="internal">
        <lane id=":G_2_0" index="0" speed="13.89" length="14.19" shape="-451.60,157.20 -451.05,153.35 -449.40,150.60 -446.65,148.95 -442.80,148.40"/>
    </edge>
    <edge id=":G_3" function="internal">
        <lane id=":G_3_0" index="0" speed="13.89" length="9.03" shape="-442.80,151.60 -445.25,151.95 -447.00,153.00 -448.05,154.75 -448.40,157.20"/>
    </edge>
    <edge id=":G_4" function="internal">
        <lane id=":G_4_0" index="0" speed="13.89" length="14.40" shape="-442.80,151.60 -457.20,151.60"/>
    </edge>
    <edge id=":G_5" function="internal">
        <lane id=":G_5_0" index="0" speed="13.89" length="5.93" shape="-442.80,151.60 -446.65,151.05 -448.40,150.00"/>
    </edge>
    <edge id=":G_12" function="internal">
        <lane id=":G_12_0" index="0" speed="13.89" length="8.26" shape="-448.40,150.00 -449.40,149.40 -451.05,146.65 -451.60,142.80"/>
    </edge>
    <edge id=":G_6" function="internal">
        <lane id=":G_6_0" index="0" speed="13.89" length="9.03" shape="-448.40,142.80 -448.05,145.25 -447.00,147.00 -445.25,148.05 -442.80,148.40"/>
    </edge>
    <edge id=":G_7" function="internal">
        <lane id=":G_7_0" index="0" speed="13.89" length="14.40" shape="-448.40,142.80 -448.40,157.20"/>
    </edge>
    <edge id=":G_8" function="internal">
        <lane id=":G_8_0" index="0" speed="13.89" length="14.19" shape="-448.40,142.80 -448.95,146.65 -450.60,149.40 -453.35,151.05 -457.20,151.60"/>
    </edge>
    <edge id=":G_9" function="internal">
        <lane id=":G_9_0" index="0" speed="13.89" length="9.03" shape="-457.20,148.40 -454.75,148.05 -453.00,147.00 -451.95,145.25 -451.60,142.80"/>
    </edge>
    <edge id=":G_10" function="internal">
        <lane id=":G_10_0" index="0" speed="13.89" length="14.40" shape="-457.20,148.40 -442.80,148.40"/>
    </edge>
    <edge id=":G_11" function="internal">
        <lane id=":G_11_0" index="0" speed="13.89" length="5.93" shape="-457.20,148.40 -453.35,148.95 -451.60,150.00"/>
    </edge>
    <edge id=":G_13" function="internal">
        <lane id=":G_13_0" index="0" speed="13.89" length="8.26" shape="-451.60,150.00 -450.60,150.60 -448.95,153.35 -448.40,157.20"/>
    </edge>
    <edge id=":G_w0" function="walkingarea">
        <lane id=":G_w0_0" index="0" allow="pedestrian" speed="1.00" length="10.51" width="3.20" shape="-453.20,157.20 -450.00,157.20 -450.00,157.20 -446.80,157.20 -442.80,153.20 -442.80,150.00 -442.80,150.00 -442.80,146.80 -446.80,142.80 -450.00,142.80 -450.00,142.80 -453.20,142.80 -457.20,146.80 -457.20,150.00 -457.20,150.00 -457.20,153.20"/>
    </edge>
    <edge id=":H_0" function="internal">
        <lane id=":H_0_0" index="0" speed="13.89" length="9.03" shape="-301.60,157.20 -301.95,154.75 -303.00,153.00 -304.75,151.95 -307.20,151.60"/>
    </edge>
    <edge id=":H_1" function="internal">
        <lane id=":H_1_0" index="0" speed="13.89" length="14.40" shape="-301.60,157.20 -301.60,142.80"/>
    </edge>
    <edge id=":H_2" function="internal">
        <lane id=":H_2_0" index="0" speed="13.89" length="14.19" shape="-301.60,157.20 -301.05,153.35 -299.40,150.60 -296.65,148.95 -292.80,148.40"/>
    </edge>
    <edge id=":H_3" function="internal">
        <lane id=":H_3_0" index="0" speed="13.89" length="9.03" shape="-292.80,151.60 -295.25,151.95 -297.00,153.00 -298.05,154.75 -298.40,157.20"/>
    </edge>
    <edge id=":H_4" function="internal">
        <lane id=":H_4_0" index="0" speed="13.89" length="14.40" shape="-292.80,151.60 -307.20,151.60"/>
    </edge>
    <edge id=":H_5" function="internal">
        <lane id=":H_5_0" index="0" speed="13.89" length="5.93" shape="-292.80,151.60 -296.65,151.05 -298.40,150.00"/>
    </edge>
    <edge id=":H_12" function="internal">
        <lane id=":H_12_0" index="0" speed="13.89" length="8.26" shape="-298.40,150.00 -299.40,149.40 -301.05,146.65 -301.60,142.80"/>
    </edge>
    <edge id=":H_6" function="internal">
        <lane id=":H_6_0" index="0" speed="13.89" length="9.03" shape="-298.40,142.80 -298.05,145.25 -297.00,147.00 -295.25,148.05 -292.80,148.40"/>
    </edge>
    <edge id=":H_7" function="internal">
        <lane id=":H_7_0" index="0" speed="13.89" length="14.40" shape="-298.40,142.80 -298.40,157.20"/>
    </edge>
    <edge id=":H_8" function="internal">
        <lane id=":H_8_0" index="0" speed="13.89" length="14.19" shape="-298.40,142.80 -298.95,146.65 -300.60,149.40 -303.35,151.05 -307.20,151.60"/>
    </edge>
    <edge id=":H_9" function="internal">
        <lane id=":H_9_0" index="0" speed="13.89" length="9.03" shape="-307.20,148.40 -304.75,148.05 -303.00,147.00 -301.95,145.25 -301.60,142.80"/>
    </edge>
    <edge id=":H_10" function="internal">
        <lane id=":H_10_0" index="0" speed="13.89" length="14.40" shape="-307.20,148.40 -292.80,148.40"/>
    </edge>
    <edge id=":H_11" function="internal">
        <lane id=":H_11_0" index="0" speed="13.89" length="5.93" shape="-307.20,148.40 -303.35,148.95 -301.60,150.00"/>
    </edge>
    <edge id=":H_13" function="internal">
        <lane id=":H_13_0" index="0" speed="13.89" length="8.26" shape="-301.60,150.00 -300.60,150.60 -298.95,153.35 -298.40,157.20"/>
    </edge>
    <edge id=":H_w0" function="walkingarea">
        <lane id=":H_w0_0" index="0" allow="pedestrian" speed="1.00" length="10.51" width="3.20" shape="-303.20,157.20 -300.00,157.20 -300.00,157.20 -296.80,157.20 -292.80,153.20 -292.80,150.00 -292.80,150.00 -292.80,146.80 -296.80,142.80 -300.00,142.80 -300.00,142.80 -303.20,142.80 -307.20,146.80 -307.20,150.00 -307.20,150.00 -307.20,153.20"/>
    </edge>
    <edge id=":I_0" function="internal">
        <lane id=":I_0_0" index="0" speed="13.89" length="9.03" shape="-151.60,157.20 -151.95,154.75 -153.00,153.00 -154.75,151.95 -157.20,151.60"/>
    </edge>
    <edge id=":I_1" function="internal">
        <lane id=":I_1_0" index="0" speed="13.89" length="14.40" shape="-151.60,157.20 -151.60,142.80"/>
    </edge>
    <edge id=":I_2" function="internal">
        <lane id=":I_2_0" index="0" speed="13.89" length="4.12" shape="-151.60,157.20 -151.05,153.35 -150.93,153.15"/>
    </edge>
    <edge id=":I_12" function="internal">
        <lane id=":I_12_0" index="0" speed="13.89" length="10.08" shape="-150.93,153.15 -149.40,150.60 -146.65,148.95 -142.80,148.40"/>
    </edge>
    <edge id=":I_3" function="internal">
        <lane id=":I_3_0" index="0" speed="13.89" length="9.03" shape="-142.80,151.60 -145.25,151.95 -147.00,153.00 -148.05,154.75 -148.40,157.20"/>
    </edge>
    <edge id=":I_4" function="internal">
        <lane id=":I_4_0" index="0" speed="13.89" length="14.40" shape="-142.80,151.60 -157.20,151.60"/>
    </edge>
    <edge id=":I_5" function="internal">
        <lane id=":I_5_0" index="0" speed="13.89" length="14.19" shape="-142.80,151.60 -146.65,151.05 -149.40,149.40 -151.05,146.65 -151.60,142.80"/>
    </edge>
    <edge id=":I_6" function="internal">
        <lane id=":I_6_0" index="0" speed="13.89" length="9.03" shape="-148.40,142.80 -148.05,145.25 -147.00,147.00 -145.25,148.05 -142.80,148.40"/>
    </edge>
    <edge id=":I_7" function="internal">
        <lane id=":I_7_0" index="0" speed="13.89" length="14.40" shape="-148.40,142.80 -148.40,157.20"/>
    </edge>
    <edge id=":I_8" function="internal">
        <lane id=":I_8_0" index="0" speed="13.89" length="14.19" shape="-148.40,142.80 -148.95,146.65 -150.60,149.40 -153.35,151.05 -157.20,151.60"/>
    </edge>
    <edge id=":I_9" function="internal">
        <lane id=":I_9_0" index="0" speed="13.89" length="9.03" shape="-157.20,148.40 -154.75,148.05 -153.00,147.00 -151.95,145.25 -151.60,142.80"/>
    </edge>
    <edge id=":I_10" function="internal">
        <lane id=":I_10_0" index="0" speed="13.89" length="14.40" shape="-157.20,148.40 -142.80,148.40"/>
    </edge>
    <edge id=":I_11" function="internal">
        <lane id=":I_11_0" index="0" speed="13.89" length="14.19" shape="-157.20,148.40 -153.35,148.95 -150.60,150.60 -148.95,153.35 -148.40,157.20"/>
    </edge>
    <edge id=":I_w0" function="walkingarea">
        <lane id=":I_w0_0" index="0" allow="pedestrian" speed="1.00" length="10.51" width="3.20" shape="-153.20,157.20 -150.00,157.20 -150.00,157.20 -146.80,157.20 -142.80,153.20 -142.80,150.00 -142.80,150.00 -142.80,146.80 -146.80,142.80 -150.00,142.80 -150.00,142.80 -153.20,142.80 -157.20,146.80 -157.20,150.00 -157.20,150.00 -157.20,153.20"/>
    </edge>
    <edge id=":Node1_0" function="internal">
        <lane id=":Node1_0_0" index="0" speed="13.89" length="7.74" shape="-596.80,601.60 -598.90,601.30 -600.40,600.40 -601.30,598.90 -601.60,596.80"/>
    </edge>
    <edge id=":Node1_1" function="internal">
        <lane id=":Node1_1_0" index="0" speed="13.89" length="2.58" shape="-598.40,596.80 -598.30,597.50 -598.00,598.00 -597.50,598.30 -596.80,598.40"/>
    </edge>
    <edge id=":Node1_w0" function="walkingarea">
        <lane id=":Node1_w0_0" index="0" allow="pedestrian" speed="1.00" length="4.26" width="3.20" shape="-596.80,603.20 -596.80,600.00 -596.80,600.00 -596.80,596.80 -596.80,596.80 -600.00,596.80 -600.00,596.80 -603.20,596.80"/>
    </edge>
    <edge id=":Node10_0" function="internal">
        <lane id=":Node10_0_0" index="0" speed="13.89" length="9.03" shape="-1.60,457.20 -1.95,454.75 -3.00,453.00 -4.75,451.95 -7.20,451.60"/>
    </edge>
    <edge id=":Node10_1" function="internal">
        <lane id=":Node10_1_0" index="0" speed="13.89" length="14.40" shape="-1.60,457.20 -1.60,442.80"/>
    </edge>
    <edge id=":Node10_2" function="internal">
        <lane id=":Node10_2_0" index="0" speed="13.89" length="14.40" shape="1.60,442.80 1.60,457.20"/>
    </edge>
    <edge id=":Node10_3" function="internal">
        <lane id=":Node10_3_0" index="0" speed="13.89" length="5.93" shape="1.60,442.80 1.05,446.65 0.00,448.40"/>
    </edge>
    <edge id=":Node10_6" function="internal">
        <lane id=":Node10_6_0" index="0" speed="13.89" length="8.26" shape="0.00,448.40 -0.60,449.40 -3.35,451.05 -7.20,451.60"/>
    </edge>
    <edge id=":Node10_4" function="internal">
        <lane id=":Node10_4_0" index="0" speed="13.89" length="9.03" shape="-7.20,448.40 -4.75,448.05 -3.00,447.00 -1.95,445.25 -1.60,442.80"/>
    </edge>
    <edge id=":Node10_5" function="internal">