<?xml version="1.0" encoding="UTF-8"?>

<!-- generated on Sun 14 Mar 2021 11:15:27 CET by Eclipse SUMO netedit Version 1.4.0
<configuration xmlns:xsi="http://www.w3.org/2001/XMLSchema-instance" xsi:noNamespaceSchemaLocation="http://sumo.dlr.de/xsd/netconvertConfiguration.xsd">

    <input>
        <sumo-net-file value="try.net.xml"/>
    </input>

    <output>
        <output-file value="try.net.xml"/>
    </output>

    <processing>
        <geometry.min-radius.fix.railways value="false"/>
        <geometry.max-grade.fix value="false"/>
        <offset.disable-normalization value="true"/>
        <lefthand value="false"/>
    </processing>

    <junctions>
        <no-turnarounds value="true"/>
        <junctions.corner-detail value="5"/>
        <junctions.limit-turn-speed value="5.5"/>
        <rectangular-lane-cut value="false"/>
    </junctions>

    <pedestrian>
        <walkingareas value="false"/>
    </pedestrian>

    <report>
        <aggregate-warnings value="5"/>
    </report>

</configuration>
-->

<net version="1.3" junctionCornerDetail="5" limitTurnSpeed="5.50" xmlns:xsi="http://www.w3.org/2001/XMLSchema-instance" xsi:noNamespaceSchemaLocation="http://sumo.dlr.de/xsd/net_file.xsd">

    <location netOffset="-652262.91,-4946309.38" convBoundary="0.00,0.00,1811.42,1125.80" origBoundary="652262.91,4946309.38,654074.32,4947435.17" projParameter="!"/>

    <edge id=":1076629757_0" function="internal">
        <lane id=":1076629757_0_0" index="0" speed="8.11" length="4.91" shape="816.36,465.11 815.69,466.40 815.31,467.35 815.24,468.35 815.47,469.76"/>
    </edge>
    <edge id=":1076629757_1" function="internal">
        <lane id=":1076629757_1_0" index="0" speed="8.33" length="5.31" shape="812.28,464.96 813.34,466.33 814.22,467.21 814.92,468.16 815.47,469.76"/>
        <lane id=":1076629757_1_1" index="1" speed="8.33" length="5.31" shape="809.59,466.69 810.48,467.79 811.25,468.46 811.88,469.19 812.35,470.47"/>
    </edge>
    <edge id=":1076629758_0" function="internal">
        <lane id=":1076629758_0_0" index="0" speed="8.33" length="1.13" shape="817.25,477.56 817.36,478.05 817.40,478.39 817.39,478.74 817.33,479.23"/>
        <lane id=":1076629758_0_1" index="1" speed="8.33" length="1.13" shape="814.13,478.27 814.17,478.44 814.18,478.55 814.18,478.67 814.16,478.83"/>
    </edge>
    <edge id=":1076629761_0" function="internal">
        <lane id=":1076629761_0_0" index="0" speed="8.33" length="1.34" shape="816.46,486.08 816.38,486.67 816.28,487.07 816.11,487.44 815.81,487.96"/>
        <lane id=":1076629761_0_1" index="1" speed="8.33" length="1.34" shape="813.29,485.68 813.26,485.88 813.23,486.01 813.17,486.13 813.07,486.31"/>
    </edge>
    <edge id=":1076629764_0" function="internal">
        <lane id=":1076629764_0_0" index="0" speed="8.33" length="1.12" shape="795.81,504.03 795.33,504.15 794.99,504.21 794.65,504.22 794.15,504.18"/>
        <lane id=":1076629764_0_1" index="1" speed="8.33" length="1.12" shape="794.96,500.94 794.80,500.98 794.68,501.00 794.57,501.01 794.40,500.99"/>
    </edge>
    <edge id=":1076629766_0" function="internal">
        <lane id=":1076629766_0_0" index="0" speed="8.33" length="1.11" shape="787.24,503.63 786.75,503.59 786.41,503.53 786.09,503.42 785.64,503.22"/>
        <lane id=":1076629766_0_1" index="1" speed="8.33" length="1.11" shape="787.49,500.44 787.33,500.43 787.22,500.41 787.11,500.37 786.96,500.31"/>
    </edge>
    <edge id=":1076629767_0" function="internal">
        <lane id=":1076629767_0_0" index="0" speed="8.33" length="0.99" shape="779.31,500.34 778.91,500.16 778.65,500.01 778.41,499.82 778.08,499.53"/>
        <lane id=":1076629767_0_1" index="1" speed="8.33" length="0.99" shape="780.64,497.43 780.51,497.37 780.42,497.32 780.34,497.26 780.23,497.16"/>
    </edge>
    <edge id=":1076629769_0" function="internal">
        <lane id=":1076629769_0_0" index="0" speed="8.33" length="1.13" shape="769.65,488.66 769.41,488.22 769.27,487.91 769.18,487.57 769.09,487.08"/>
        <lane id=":1076629769_0_1" index="1" speed="8.33" length="1.13" shape="772.43,487.07 772.35,486.93 772.30,486.82 772.27,486.71 772.24,486.55"/>
    </edge>
    <edge id=":1076629770_0" function="internal">
        <lane id=":1076629770_0_0" index="0" speed="8.33" length="1.13" shape="767.93,480.28 767.85,479.79 767.82,479.44 767.85,479.10 767.94,478.60"/>
        <lane id=":1076629770_0_1" index="1" speed="8.33" length="1.13" shape="771.08,479.74 771.06,479.58 771.05,479.46 771.06,479.35 771.09,479.18"/>
    </edge>
    <edge id=":1076629771_0" function="internal">
        <lane id=":1076629771_0_0" index="0" speed="6.25" length="8.18" shape="768.92,473.26 769.49,470.88 769.94,469.20 769.98,467.56 769.34,465.29"/>
    </edge>
    <edge id=":1076629771_1" function="internal">
        <lane id=":1076629771_1_0" index="0" speed="8.33" length="3.99" shape="768.92,473.26 769.17,471.96 769.41,471.07 769.77,470.23 770.39,469.06"/>
        <lane id=":1076629771_1_1" index="1" speed="8.33" length="3.99" shape="772.07,473.84 772.26,472.82 772.45,472.14 772.73,471.49 773.21,470.57"/>
    </edge>
    <edge id=":1076629776_0" function="internal">
        <lane id=":1076629776_0_0" index="0" speed="8.33" length="4.14" shape="784.92,456.43 786.21,455.90 787.10,455.50 788.01,455.24 789.38,455.16"/>
        <lane id=":1076629776_0_1" index="1" speed="8.33" length="4.14" shape="785.98,459.45 786.96,459.03 787.63,458.68 788.31,458.44 789.35,458.36"/>
    </edge>
    <edge id=":1076629777_0" function="internal">
        <lane id=":1076629777_0_0" index="0" speed="8.33" length="4.14" shape="796.32,455.22 797.69,455.33 798.60,455.60 799.48,456.02 800.76,456.57"/>
        <lane id=":1076629777_0_1" index="1" speed="8.33" length="4.14" shape="796.29,458.42 797.33,458.52 798.01,458.77 798.67,459.13 799.65,459.57"/>
    </edge>
    <edge id=":1076629780_0" function="internal">
        <lane id=":1076629780_0_0" index="0" speed="8.33" length="1.01" shape="804.47,457.96 804.89,458.12 805.17,458.26 805.42,458.43 805.78,458.71"/>
        <lane id=":1076629780_0_1" index="1" speed="8.33" length="1.01" shape="803.34,460.95 803.48,461.01 803.57,461.05 803.65,461.11 803.77,461.20"/>
    </edge>
    <edge id=":1076629789_0" function="internal">
        <lane id=":1076629789_0_0" index="0" speed="8.33" length="1.09" shape="1110.58,174.37 1110.38,173.93 1110.26,173.62 1110.20,173.29 1110.14,172.81"/>
        <lane id=":1076629789_0_1" index="1" speed="8.33" length="1.09" shape="1113.47,173.00 1113.41,172.86 1113.37,172.75 1113.35,172.64 1113.33,172.48"/>
    </edge>
    <edge id=":1076629791_0" function="internal">
        <lane id=":1076629791_0_0" index="0" speed="8.33" length="2.28" shape="1113.13,156.65 1113.56,156.00 1113.90,155.59 1114.29,155.22 1114.85,154.66"/>
        <lane id=":1076629791_0_1" index="1" speed="8.33" length="2.28" shape="1115.88,158.28 1116.20,157.81 1116.47,157.53 1116.76,157.26 1117.17,156.86"/>
    </edge>
    <edge id=":1076629793_0" function="internal">
        <lane id=":1076629793_0_0" index="0" speed="5.58" length="3.21" shape="1117.70,150.57 1118.32,150.78 1119.04,150.79 1119.86,150.62 1120.79,150.27"/>
    </edge>
    <edge id=":1076629793_1" function="internal">
        <lane id=":1076629793_1_0" index="0" speed="8.33" length="3.04" shape="1118.00,151.95 1118.80,151.40 1119.35,151.02 1119.92,150.69 1120.79,150.27"/>
        <lane id=":1076629793_1_1" index="1" speed="8.33" length="3.04" shape="1119.77,154.61 1120.46,154.14 1120.93,153.81 1121.42,153.52 1122.17,153.15"/>
    </edge>
    <edge id=":1076629794_0" function="internal">
        <lane id=":1076629794_0_0" index="0" speed="8.33" length="2.89" shape="1133.53,148.91 1134.46,149.09 1135.08,149.30 1135.68,149.57 1136.57,149.94"/>
        <lane id=":1076629794_0_1" index="1" speed="8.33" length="2.89" shape="1133.06,152.08 1133.79,152.23 1134.28,152.41 1134.75,152.64 1135.45,152.93"/>
    </edge>
    <edge id=":1076629795_0" function="internal">
        <lane id=":1076629795_0_0" index="0" speed="8.33" length="3.09" shape="1145.00,156.51 1145.66,157.31 1146.01,157.94 1146.29,158.63 1146.71,159.60"/>
        <lane id=":1076629795_0_1" index="1" speed="8.33" length="3.09" shape="1142.64,158.67 1143.11,159.27 1143.35,159.74 1143.52,160.26 1143.82,160.98"/>
    </edge>
    <edge id=":1076629797_0" function="internal">
        <lane id=":1076629797_0_0" index="0" speed="8.33" length="1.16" shape="1148.74,167.49 1148.81,168.00 1148.82,168.35 1148.78,168.71 1148.67,169.21"/>
        <lane id=":1076629797_0_1" index="1" speed="8.33" length="1.16" shape="1145.57,167.94 1145.60,168.11 1145.60,168.22 1145.59,168.34 1145.55,168.51"/>
    </edge>
    <edge id=":1076629799_0" function="internal">
        <lane id=":1076629799_0_0" index="0" speed="8.33" length="3.27" shape="1141.26,183.37 1140.44,184.11 1139.78,184.50 1139.06,184.81 1138.03,185.27"/>
        <lane id=":1076629799_0_1" index="1" speed="8.33" length="3.27" shape="1139.00,181.11 1138.39,181.64 1137.89,181.89 1137.35,182.09 1136.59,182.41"/>
    </edge>
    <edge id=":1076629800_0" function="internal">
        <lane id=":1076629800_0_0" index="0" speed="8.33" length="0.67" shape="1125.51,187.25 1125.21,187.22 1125.01,187.19 1124.81,187.13 1124.53,187.04"/>
        <lane id=":1076629800_0_1" index="1" speed="8.33" length="0.67" shape="1125.85,184.07 1125.75,184.06 1125.68,184.05 1125.62,184.03 1125.52,184.00"/>
    </edge>
    <edge id=":1359262854_0" function="internal">
        <lane id=":1359262854_0_0" index="0" speed="4.17" length="0.49" shape="1121.38,126.22 1121.50,126.14 1121.58,126.07 1121.64,126.00 1121.74,125.89"/>
    </edge>
    <edge id=":1359262856_0" function="internal">
        <lane id=":1359262856_0_0" index="0" speed="13.89" length="0.10" shape="1102.75,142.51 1102.72,142.47"/>
    </edge>
    <edge id=":1359262856_1" function="internal">
        <lane id=":1359262856_1_0" index="0" speed="13.89" length="0.29" shape="1105.29,140.57 1105.45,140.80"/>
    </edge>
    <edge id=":1419841622_0" function="internal">
        <lane id=":1419841622_0_0" index="0" speed="13.89" length="0.31" shape="500.03,232.04 499.74,231.93"/>
    </edge>
    <edge id=":1419841622_1" function="internal">
        <lane id=":1419841622_1_0" index="0" speed="13.89" length="0.25" shape="500.94,228.96 501.17,229.06"/>
    </edge>
    <edge id=":1419841657_0" function="internal">
        <lane id=":1419841657_0_0" index="0" speed="13.89" length="8.01" shape="649.71,268.77 641.83,267.36"/>
    </edge>
    <edge id=":1419841657_1" function="internal">
        <lane id=":1419841657_1_0" index="0" speed="13.89" length="8.40" shape="642.40,264.21 644.90,264.16 646.61,263.35 648.31,262.53 650.82,262.47"/>
        <lane id=":1419841657_1_1" index="1" speed="13.89" length="8.40" shape="642.40,264.21 650.27,265.62"/>
    </edge>
    <edge id=":1419841682_0" function="internal">
        <lane id=":1419841682_0_0" index="0" speed="6.94" length="0.29" shape="677.94,294.25 677.94,293.96"/>
    </edge>
    <edge id=":1419841682_1" function="internal">
        <lane id=":1419841682_1_0" index="0" speed="6.94" length="0.31" shape="681.14,293.92 681.14,294.23"/>
    </edge>
    <edge id=":1419841705_0" function="internal">
        <lane id=":1419841705_0_0" index="0" speed="8.33" length="0.31" shape="838.46,440.73 838.23,440.93"/>
    </edge>
    <edge id=":1419841705_1" function="internal">
        <lane id=":1419841705_1_0" index="0" speed="8.33" length="0.29" shape="836.16,438.49 836.38,438.30"/>
    </edge>
    <edge id=":1476164942_0" function="internal">
        <lane id=":1476164942_0_0" index="0" speed="4.17" length="1.01" shape="1609.85,875.00 1609.95,875.28 1610.00,875.48 1610.02,875.68 1610.07,875.97"/>
    </edge>
    <edge id=":1476164945_0" function="internal">
        <lane id=":1476164945_0_0" index="0" speed="4.17" length="1.23" shape="1610.11,876.17 1610.19,876.53 1610.25,876.77 1610.29,877.02 1610.27,877.38"/>
    </edge>
    <edge id=":1476164946_0" function="internal">
        <lane id=":1476164946_0_0" index="0" speed="4.17" length="0.51" shape="1609.96,880.73 1609.95,880.88 1609.93,880.98 1609.89,881.08 1609.83,881.22"/>
    </edge>
    <edge id=":1476164947_0" function="internal">
        <lane id=":1476164947_0_0" index="0" speed="4.17" length="0.10" shape="1594.30,881.99 1594.26,881.95"/>
    </edge>
    <edge id=":1476164948_0" function="internal">
        <lane id=":1476164948_0_0" index="0" speed="4.17" length="1.82" shape="1609.79,881.31 1609.59,881.82 1609.48,882.17 1609.32,882.51 1609.01,882.94"/>
    </edge>
    <edge id=":1476164949_0" function="internal">
        <lane id=":1476164949_0_0" index="0" speed="4.17" length="0.24" shape="1596.16,883.60 1596.10,883.57 1596.06,883.54 1596.03,883.51 1595.97,883.46"/>
    </edge>
    <edge id=":1476164953_0" function="internal">
        <lane id=":1476164953_0_0" index="0" speed="4.17" length="2.56" shape="1600.40,885.65 1599.66,885.44 1599.15,885.33 1598.66,885.16 1598.00,884.79"/>
    </edge>
    <edge id=":1476164955_0" function="internal">
        <lane id=":1476164955_0_0" index="0" speed="4.17" length="0.72" shape="1603.85,886.17 1603.65,886.22 1603.50,886.24 1603.35,886.23 1603.14,886.19"/>
    </edge>
    <edge id=":1476164978_0" function="internal">
        <lane id=":1476164978_0_0" index="0" speed="13.89" length="0.35" shape="1332.27,1084.79 1332.26,1084.68 1332.25,1084.61 1332.23,1084.54 1332.20,1084.44"/>
    </edge>
    <edge id=":1476164983_0" function="internal">
        <lane id=":1476164983_0_0" index="0" speed="13.89" length="0.20" shape="1332.81,1090.84 1332.82,1090.78 1332.82,1090.74 1332.81,1090.69 1332.81,1090.63"/>
    </edge>
    <edge id=":1476164986_0" function="internal">
        <lane id=":1476164986_0_0" index="0" speed="13.89" length="0.20" shape="1339.64,1096.51 1339.69,1096.47 1339.72,1096.45 1339.75,1096.43 1339.80,1096.39"/>
    </edge>
    <edge id=":1476164989_0" function="internal">
        <lane id=":1476164989_0_0" index="0" speed="13.89" length="0.61" shape="1352.99,1105.06 1352.92,1105.23 1352.87,1105.34 1352.79,1105.44 1352.67,1105.58"/>
    </edge>
    <edge id=":1476164991_0" function="internal">
        <lane id=":1476164991_0_0" index="0" speed="13.89" length="0.48" shape="1354.66,1112.56 1354.52,1112.54 1354.42,1112.54 1354.32,1112.55 1354.18,1112.57"/>
    </edge>
    <edge id=":1476164993_0" function="internal">
        <lane id=":1476164993_0_0" index="0" speed="13.89" length="0.21" shape="1376.30,1118.06 1376.24,1118.05 1376.20,1118.04 1376.16,1118.02 1376.10,1118.00"/>
    </edge>
    <edge id=":1786899256_0" function="internal">
        <lane id=":1786899256_0_0" index="0" speed="6.25" length="6.72" shape="773.74,457.35 775.57,458.39 777.22,458.91 778.70,458.90 780.01,458.36"/>
    </edge>
    <edge id=":1786899256_1" function="internal">
        <lane id=":1786899256_1_0" index="0" speed="8.33" length="6.53" shape="774.79,462.74 776.20,461.29 777.22,460.33 778.32,459.49 780.01,458.36"/>
        <lane id=":1786899256_1_1" index="1" speed="8.33" length="6.53" shape="777.09,464.97 778.37,463.65 779.30,462.78 780.31,462.01 781.84,460.99"/>
    </edge>
    <edge id=":1786899257_0" function="internal">
        <lane id=":1786899257_0_0" index="0" speed="8.33" length="0.54" shape="808.74,498.34 808.56,498.51 808.43,498.61 808.30,498.71 808.09,498.84"/>
        <lane id=":1786899257_0_1" index="1" speed="8.33" length="0.54" shape="806.58,495.98 806.52,496.04 806.48,496.07 806.43,496.10 806.36,496.15"/>
    </edge>
    <edge id=":1786899260_0" function="internal">
        <lane id=":1786899260_0_0" index="0" speed="6.94" length="0.31" shape="1105.56,839.96 1105.34,839.74"/>
    </edge>
    <edge id=":1786899260_1" function="internal">
        <lane id=":1786899260_1_0" index="0" speed="6.94" length="0.23" shape="1107.65,837.53 1107.81,837.69"/>
    </edge>
    <edge id=":2012904685_0" function="internal">
        <lane id=":2012904685_0_0" index="0" speed="2.78" length="3.66" shape="766.55,199.33 765.46,199.30 764.70,199.38 764.01,199.68 763.16,200.31"/>
    </edge>
    <edge id=":2012904685_1" function="internal">
        <lane id=":2012904685_1_0" index="0" speed="2.78" length="8.04" shape="766.55,199.33 763.63,199.00 762.26,198.24 762.45,197.06 764.18,195.46"/>
    </edge>
    <edge id=":2012904685_2" function="internal">
        <lane id=":2012904685_2_0" index="0" speed="2.78" length="3.86" shape="761.13,197.83 764.18,195.46"/>
    </edge>
    <edge id=":2012904685_3" function="internal">
        <lane id=":2012904685_3_0" index="0" speed="2.78" length="4.67" shape="761.13,197.83 762.57,197.69 763.38,198.06 763.58,198.93 763.16,200.31"/>
    </edge>
    <edge id=":2012904688_0" function="internal">
        <lane id=":2012904688_0_0" index="0" speed="2.78" length="0.10" shape="762.98,200.46 762.96,200.48 762.95,200.50 762.94,200.52 762.93,200.54"/>
    </edge>
    <edge id=":2012904688_1" function="internal">
        <lane id=":2012904688_1_0" index="0" speed="2.78" length="0.66" shape="760.44,198.53 760.56,198.37 760.64,198.27 760.73,198.17 760.88,198.04"/>
    </edge>
    <edge id=":2012904690_0" function="internal">
        <lane id=":2012904690_0_0" index="0" speed="2.78" length="0.61" shape="752.34,213.60 752.23,213.74 752.15,213.83 752.06,213.92 751.93,214.05"/>
    </edge>
    <edge id=":2012904690_1" function="internal">
        <lane id=":2012904690_1_0" index="0" speed="2.78" length="0.20" shape="749.72,211.73 749.76,211.69 749.79,211.66 749.82,211.63 749.86,211.58"/>
    </edge>
    <edge id=":2012904697_0" function="internal">
        <lane id=":2012904697_0_0" index="0" speed="2.78" length="11.21" shape="617.70,229.33 606.50,229.36"/>
    </edge>
    <edge id=":2012904697_1" function="internal">
        <lane id=":2012904697_1_0" index="0" speed="2.78" length="9.04" shape="611.86,235.04 611.65,232.55 610.69,230.77 608.97,229.71 606.50,229.36"/>
    </edge>
    <edge id=":2012904699_0" function="internal">
        <lane id=":2012904699_0_0" index="0" speed="2.78" length="0.36" shape="642.03,241.40 641.93,241.38 641.85,241.37 641.78,241.37 641.67,241.37"/>
    </edge>
    <edge id=":2012904701_0" function="internal">
        <lane id=":2012904701_0_0" index="0" speed="2.78" length="2.29" shape="612.83,241.23 612.25,241.02 611.85,240.67 611.63,240.19 611.58,239.57"/>
    </edge>
    <edge id=":2012904703_0" function="internal">
        <lane id=":2012904703_0_0" index="0" speed="2.78" length="7.75" shape="633.29,246.27 632.07,244.31 630.68,242.92 629.13,242.12 627.42,241.89"/>
    </edge>
    <edge id=":2012904703_1" function="internal">
        <lane id=":2012904703_1_0" index="0" speed="2.78" length="8.65" shape="636.07,241.57 627.42,241.89"/>
    </edge>
    <edge id=":2012904705_0" function="internal">
        <lane id=":2012904705_0_0" index="0" speed="2.78" length="3.43" shape="620.67,242.15 619.65,242.24 618.95,242.35 618.26,242.38 617.26,242.22"/>
    </edge>
    <edge id=":2012904708_0" function="internal">
        <lane id=":2012904708_0_0" index="0" speed="2.78" length="7.59" shape="700.96,250.98 694.98,255.65"/>
    </edge>
    <edge id=":2012904708_1" function="internal">
        <lane id=":2012904708_1_0" index="0" speed="2.78" length="7.20" shape="700.96,250.98 699.76,251.55 698.19,251.81 696.25,251.78 693.94,251.44"/>
    </edge>
    <edge id=":2012904711_0" function="internal">
        <lane id=":2012904711_0_0" index="0" speed="2.78" length="1.48" shape="639.11,256.36 638.74,256.25 638.43,256.07 638.17,255.82 637.96,255.50"/>
    </edge>
    <edge id=":2012904712_0" function="internal">
        <lane id=":2012904712_0_0" index="0" speed="2.78" length="1.36" shape="684.74,263.88 684.45,264.07 684.14,264.19 683.81,264.23 683.46,264.21"/>
    </edge>
    <edge id=":2023217239_0" function="internal">
        <lane id=":2023217239_0_0" index="0" speed="13.89" length="0.13" shape="1000.15,62.21 1000.04,62.28"/>
    </edge>
    <edge id=":2023217239_1" function="internal">
        <lane id=":2023217239_1_0" index="0" speed="13.89" length="0.39" shape="998.21,59.66 998.53,59.46"/>
    </edge>
    <edge id=":2032810861_0" function="internal">
        <lane id=":2032810861_0_0" index="0" speed="4.17" length="0.28" shape="1291.98,1010.49 1291.92,1010.54 1291.87,1010.57 1291.83,1010.61 1291.77,1010.67"/>
    </edge>
    <edge id=":2032810861_1" function="internal">
        <lane id=":2032810861_1_0" index="0" speed="4.17" length="0.83" shape="1289.51,1008.40 1289.69,1008.23 1289.81,1008.12 1289.95,1008.01 1290.15,1007.87"/>
    </edge>
    <edge id=":2036365615_0" function="internal">
        <lane id=":2036365615_0_0" index="0" speed="13.89" length="0.15" shape="1033.38,47.91 1033.29,47.79"/>
    </edge>
    <edge id=":2036365615_1" function="internal">
        <lane id=":2036365615_1_0" index="0" speed="13.89" length="2.96" shape="1034.21,43.64 1035.96,46.03"/>
    </edge>
    <edge id=":2036822385_0" function="internal">
        <lane id=":2036822385_0_0" index="0" speed="6.74" length="9.33" shape="988.28,77.71 986.40,75.89 984.42,75.04 982.32,75.17 980.12,76.26"/>
    </edge>
    <edge id=":2036822385_1" function="internal">
        <lane id=":2036822385_1_0" index="0" speed="7.90" length="14.41" shape="988.28,77.71 986.28,74.26 985.91,71.06 987.18,68.09 990.08,65.37"/>
    </edge>
    <edge id=":2036822385_2" function="internal">
        <lane id=":2036822385_2_0" index="0" speed="2.78" length="4.67" shape="988.28,77.71 988.16,76.27 988.54,75.46 989.41,75.28 990.79,75.72"/>
    </edge>
    <edge id=":2036822385_3" function="internal">
        <lane id=":2036822385_3_0" index="0" speed="6.39" length="9.04" shape="991.92,67.99 990.10,69.70 989.30,71.56 989.53,73.56 990.79,75.72"/>
    </edge>
    <edge id=":2036822385_4" function="internal">
        <lane id=":2036822385_4_0" index="0" speed="13.89" length="14.41" shape="991.92,67.99 980.12,76.26"/>
    </edge>
    <edge id=":2036822385_5" function="internal">
        <lane id=":2036822385_5_0" index="0" speed="3.65" length="2.34" shape="991.92,67.99 990.47,68.02 989.69,67.60"/>
    </edge>
    <edge id=":2036822385_9" function="internal">
        <lane id=":2036822385_9_0" index="0" speed="3.65" length="2.34" shape="989.69,67.60 989.56,66.71 990.08,65.37"/>
    </edge>
    <edge id=":2036822385_6" function="internal">
        <lane id=":2036822385_6_0" index="0" speed="13.89" length="14.41" shape="978.28,73.64 990.08,65.37"/>
    </edge>
    <edge id=":2036822385_7" function="internal">
        <lane id=":2036822385_7_0" index="0" speed="8.19" length="5.83" shape="978.28,73.64 981.68,71.94 983.70,71.80"/>
    </edge>
    <edge id=":2036822385_8" function="internal">
        <lane id=":2036822385_8_0" index="0" speed="3.65" length="2.34" shape="978.28,73.64 979.72,73.61 980.51,74.04"/>
    </edge>
    <edge id=":2036822385_10" function="internal">
        <lane id=":2036822385_10_0" index="0" speed="8.19" length="8.45" shape="983.70,71.80 984.90,71.71 987.94,72.98 990.79,75.72"/>
    </edge>
    <edge id=":2036822385_11" function="internal">
        <lane id=":2036822385_11_0" index="0" speed="3.65" length="2.34" shape="980.51,74.04 980.64,74.92 980.12,76.26"/>
    </edge>
    <edge id=":2036822386_0" function="internal">
        <lane id=":2036822386_0_0" index="0" speed="2.78" length="0.10" shape="988.63,78.15 988.67,78.21"/>
    </edge>
    <edge id=":2036822386_1" function="internal">
        <lane id=":2036822386_1_0" index="0" speed="2.78" length="0.10" shape="991.19,76.23 991.23,76.29"/>
    </edge>
    <edge id=":2036822387_0" function="internal">
        <lane id=":2036822387_0_0" index="0" speed="2.78" length="7.42" shape="1013.24,107.12 1014.17,108.91 1014.33,110.60 1013.72,112.18 1012.34,113.65"/>
    </edge>
    <edge id=":2036822387_1" function="internal">
        <lane id=":2036822387_1_0" index="0" speed="2.78" length="2.47" shape="1010.33,111.16 1010.79,110.67 1011.00,110.14 1010.94,109.58 1010.63,108.98"/>
    </edge>
    <edge id=":2036822398_0" function="internal">
        <lane id=":2036822398_0_0" index="0" speed="4.17" length="0.29" shape="1166.26,250.17 1166.02,250.33"/>
    </edge>
    <edge id=":2036822398_1" function="internal">
        <lane id=":2036822398_1_0" index="0" speed="4.17" length="0.31" shape="1164.29,247.63 1164.55,247.47"/>
    </edge>
    <edge id=":2036822401_0" function="internal">
        <lane id=":2036822401_0_0" index="0" speed="13.89" length="0.31" shape="554.15,250.01 553.85,249.93"/>
    </edge>
    <edge id=":2036822401_1" function="internal">
        <lane id=":2036822401_1_0" index="0" speed="13.89" length="0.10" shape="554.77,246.87 554.88,246.90"/>
    </edge>
    <edge id=":2036822403_0" function="internal">
        <lane id=":2036822403_0_0" index="0" speed="4.17" length="0.19" shape="1034.38,282.34 1034.35,282.29 1034.32,282.26 1034.30,282.23 1034.26,282.18"/>
    </edge>
    <edge id=":2036822403_1" function="internal">
        <lane id=":2036822403_1_0" index="0" speed="4.17" length="0.58" shape="1036.64,280.05 1036.76,280.17 1036.83,280.27 1036.90,280.36 1037.00,280.50"/>
    </edge>
    <edge id=":2036822404_0" function="internal">
        <lane id=":2036822404_0_0" index="0" speed="6.94" length="0.31" shape="677.87,287.33 677.87,287.02"/>
    </edge>
    <edge id=":2036822404_1" function="internal">
        <lane id=":2036822404_1_0" index="0" speed="6.94" length="0.22" shape="681.07,287.08 681.07,287.29"/>
    </edge>
    <edge id=":2036822414_0" function="internal">
        <lane id=":2036822414_0_0" index="0" speed="4.17" length="0.30" shape="946.01,358.29 945.85,358.04"/>
    </edge>
    <edge id=":2036822414_1" function="internal">
        <lane id=":2036822414_1_0" index="0" speed="4.17" length="0.30" shape="948.53,356.29 948.69,356.54"/>
    </edge>
    <edge id=":2036822441_0" function="internal">
        <lane id=":2036822441_0_0" index="0" speed="2.78" length="0.30" shape="879.76,414.34 879.57,414.11"/>
    </edge>
    <edge id=":2036822441_1" function="internal">
        <lane id=":2036822441_1_0" index="0" speed="2.78" length="0.30" shape="882.06,412.10 882.25,412.33"/>
    </edge>
    <edge id=":2036822451_0" function="internal">
        <lane id=":2036822451_0_0" index="0" speed="5.55" length="11.68" shape="678.16,430.78 677.62,428.40 676.20,426.23 673.91,424.26 670.74,422.51"/>
    </edge>
    <edge id=":2036822451_1" function="internal">
        <lane id=":2036822451_1_0" index="0" speed="6.94" length="14.96" shape="678.16,430.78 678.03,415.83"/>
    </edge>
    <edge id=":2036822451_2" function="internal">
        <lane id=":2036822451_2_0" index="0" speed="3.65" length="2.34" shape="678.16,430.78 678.91,429.55 679.70,429.12"/>
    </edge>
    <edge id=":2036822451_9" function="internal">
        <lane id=":2036822451_9_0" index="0" speed="3.65" length="2.34" shape="679.70,429.12 680.51,429.48 681.36,430.65"/>
    </edge>
    <edge id=":2036822451_3" function="internal">
        <lane id=":2036822451_3_0" index="0" speed="6.94" length="14.78" shape="681.23,415.87 681.36,430.65"/>
    </edge>
    <edge id=":2036822451_4" function="internal">
        <lane id=":2036822451_4_0" index="0" speed="5.55" length="6.13" shape="681.23,415.87 680.51,420.55 679.68,421.67"/>
    </edge>
    <edge id=":2036822451_5" function="internal">
        <lane id=":2036822451_5_0" index="0" speed="3.65" length="2.34" shape="681.23,415.87 680.41,417.06 679.60,417.45"/>
    </edge>
    <edge id=":2036822451_10" function="internal">
        <lane id=":2036822451_10_0" index="0" speed="5.55" length="9.98" shape="679.68,421.67 678.53,423.21 675.27,423.87 670.74,422.51"/>
    </edge>
    <edge id=":2036822451_11" function="internal">
        <lane id=":2036822451_11_0" index="0" speed="3.65" length="2.34" shape="679.60,417.45 678.81,417.04 678.03,415.83"/>
    </edge>
    <edge id=":2036822451_6" function="internal">
        <lane id=":2036822451_6_0" index="0" speed="5.55" length="9.15" shape="672.07,419.60 674.64,420.37 676.50,420.00 677.62,418.48 678.03,415.83"/>
    </edge>
    <edge id=":2036822451_7" function="internal">
        <lane id=":2036822451_7_0" index="0" speed="5.55" length="15.20" shape="672.07,419.60 676.03,421.83 678.89,424.42 680.67,427.36 681.36,430.65"/>
    </edge>
    <edge id=":2036822451_8" function="internal">
        <lane id=":2036822451_8_0" index="0" speed="3.65" length="4.67" shape="672.07,419.60 672.83,420.83 672.86,421.72 672.16,422.28 670.74,422.51"/>
    </edge>
    <edge id=":2036822466_0" function="internal">
        <lane id=":2036822466_0_0" index="0" speed="6.73" length="2.97" shape="824.93,452.12 824.32,452.72 824.05,453.25 823.93,453.87 823.76,454.75"/>
    </edge>
    <edge id=":2036822466_1" function="internal">
        <lane id=":2036822466_1_0" index="0" speed="3.65" length="4.68" shape="824.93,452.12 823.50,452.30 822.67,451.95 822.46,451.08 822.85,449.69"/>
    </edge>
    <edge id=":2036822466_2" function="internal">
        <lane id=":2036822466_2_0" index="0" speed="5.94" length="2.76" shape="820.10,449.96 822.85,449.69"/>
    </edge>
    <edge id=":2036822466_3" function="internal">
        <lane id=":2036822466_3_0" index="0" speed="5.59" length="7.14" shape="820.10,449.96 822.10,450.39 823.37,451.33 823.93,452.78 823.76,454.75"/>
    </edge>
    <edge id=":2036822467_0" function="internal">
        <lane id=":2036822467_0_0" index="0" speed="8.33" length="0.94" shape="816.98,449.99 817.23,449.86 817.41,449.80 817.60,449.78 817.88,449.79"/>
    </edge>
    <edge id=":2036822471_0" function="internal">
        <lane id=":2036822471_0_0" index="0" speed="4.17" length="3.56" shape="766.13,457.03 765.74,456.05 765.42,455.39 765.04,454.78 764.42,453.92"/>
    </edge>
    <edge id=":2036822471_1" function="internal">
        <lane id=":2036822471_1_0" index="0" speed="4.17" length="8.23" shape="766.13,457.03 765.39,454.41 765.71,453.12 767.09,453.15 769.54,454.51"/>
    </edge>